/*--------------------------------*- C++ -*----------------------------------*\
| =========                 |                                                 |
| \\      /  F ield         | OpenFOAM: The Open Source CFD Toolbox           |
|  \\    /   O peration     | Version:  2406                                  |
|   \\  /    A nd           | Website:  www.openfoam.com                      |
|    \\/     M anipulation  |                                                 |
\*---------------------------------------------------------------------------*/
FoamFile
{
    version     2.0;
    format      ascii;
    arch        "LSB;label=32;scalar=64";
    class       extendedFeatureEdgeMesh;
    location    "constant/extendedFeatureEdgeMesh";
    object      Container.extendedFeatureEdgeMesh;
}
// * * * * * * * * * * * * * * * * * * * * * * * * * * * * * * * * * * * * * //

// points
8((2.4384 0 -3.048) (2.4384 -7.7724 -3.048) (0 -1.4298e-17 -3.048) (8.30334e-16 -7.7724 -3.048) (2.4384 -7.7724 3.048) (2.4384 0 3.048) (8.30334e-16 -7.7724 3.048) (0 -1.4298e-17 3.048))
// edges

12
(
(0 1)
(2 0)
(1 3)
(3 2)
(5 4)
(4 1)
(0 5)
(6 4)
(7 6)
(5 7)
(6 3)
(2 7)
)

// concaveStart mixedStart nonFeatureStart
8 8 8
// internalStart flatStart openStart multipleStart
12 12 12 12
// normals

12
(
(0 -0 -1)
(1 0 0)
(-5.86368e-18 1 0)
(0 0 -1)
(0 -1 0)
(-1 -1.06831e-16 0)
(1 -0 0)
(0 -0 1)
(-5.86368e-18 1 0)
(0 -0 1)
(0 -1 0)
(-1 -1.06831e-16 -0)
)

// normal volume types

12
(
0
0
0
0
0
0
0
0
0
0
0
0
)

// normalDirections

12
(
2(1 -1)
2(1 -1)
2(1 -1)
2(1 -1)
2(1 -1)
2(1 -1)
2(1 -1)
2(1 -1)
2(1 -1)
2(1 -1)
2(1 -1)
2(1 -1)
)

// edgeNormals

12
(
2(0 1)
2(0 2)
2(3 4)
2(3 5)
2(6 7)
2(6 4)
2(1 8)
2(9 10)
2(9 11)
2(7 8)
2(10 5)
2(2 11)
)

// featurePointNormals

8
(
3(0 1 2)
3(0 1 4)
3(0 2 5)
3(3 4 5)
3(6 7 4)
3(6 7 8)
3(9 10 11)
3(9 11 8)
)

// featurePointEdges

8
(
3(0 6 1)
3(2 5 0)
3(3 11 1)
3(2 10 3)
3(4 7 5)
3(6 9 4)
3(7 10 8)
3(9 11 8)
)

// regionEdges
0()


// ************************************************************************* //
