/*--------------------------------*- C++ -*----------------------------------*\
| =========                 |                                                 |
| \\      /  F ield         | OpenFOAM: The Open Source CFD Toolbox           |
|  \\    /   O peration     | Version:  2406                                  |
|   \\  /    A nd           | Website:  www.openfoam.com                      |
|    \\/     M anipulation  |                                                 |
\*---------------------------------------------------------------------------*/
FoamFile
{
    version     2.0;
    format      ascii;
    arch        "LSB;label=32;scalar=64";
    class       extendedFeatureEdgeMesh;
    location    "constant/extendedFeatureEdgeMesh";
    object      Spoiler.extendedFeatureEdgeMesh;
}
// * * * * * * * * * * * * * * * * * * * * * * * * * * * * * * * * * * * * * //

// points

250
(
(1.29394 0.13 -2)
(1.29394 1.83104e-16 -2)
(1.34471e-16 -1.17842 -2)
(1.34471e-16 -1.17842 2)
(1.29394 1.83104e-16 2)
(1.29394 0.13 2)
(-1.0422e-16 -7.149e-18 -2)
(-1.0422e-16 -7.149e-18 2)
(1.26556 0.142079 -2)
(0.699419 0.285425 -2)
(0.730083 0.282068 -2)
(0.760691 0.278237 -2)
(0.791237 0.273934 -2)
(0.972786 0.238272 -2)
(1.00269 0.230701 -2)
(0.483833 0.295635 -2)
(0.51468 0.295603 -2)
(0.452989 0.29519 -2)
(0.545523 0.295096 -2)
(0.576355 0.294113 -2)
(0.607167 0.292653 -2)
(0.821712 0.269161 -2)
(0.85211 0.263917 -2)
(0.882424 0.258206 -2)
(-0.0171243 -1.15407 -2)
(-0.0338841 -1.12947 -2)
(-0.0502756 -1.10463 -2)
(-0.0662953 -1.07954 -2)
(-0.0819394 -1.05421 -2)
(-0.180655 -0.87082 -2)
(-0.193178 -0.843816 -2)
(-0.205297 -0.816628 -2)
(-0.217009 -0.789263 -2)
(-0.228313 -0.761726 -2)
(-0.239206 -0.734024 -2)
(-0.249684 -0.706163 -2)
(-0.259747 -0.678149 -2)
(-0.269391 -0.649988 -2)
(-0.274997 -0.632466 -2)
(0.36055 0.291 -2)
(0.39134 0.292872 -2)
(0.422156 0.294269 -2)
(0.912646 0.252026 -2)
(0.942769 0.245381 -2)
(1.06213 0.214178 -2)
(1.09165 0.20523 -2)
(1.03247 0.222669 -2)
(1.12103 0.195827 -2)
(1.15026 0.185973 -2)
(1.17933 0.175668 -2)
(-0.126585 -0.976883 -2)
(-0.140693 -0.950672 -2)
(1.20825 0.164916 -2)
(1.23699 0.153719 -2)
(-0.0972046 -1.02866 -2)
(-0.112088 -1.00288 -2)
(-0.15441 -0.924254 -2)
(-0.167731 -0.897635 -2)
(-0.301611 -0.341389 -2)
(-0.299276 -0.323141 -2)
(-0.303477 -0.359691 -2)
(-0.289468 -0.26884 -2)
(-0.285272 -0.250928 -2)
(-0.280618 -0.23313 -2)
(-0.275507 -0.215457 -2)
(-0.209652 -0.0639409 -2)
(-0.200216 -0.0481476 -2)
(-0.135384 0.0410571 -2)
(-0.123275 0.0549071 -2)
(-0.110814 0.0684413 -2)
(-0.0980089 0.0816508 -2)
(0.637954 0.290719 -2)
(0.668707 0.288309 -2)
(-0.280151 -0.614805 -2)
(-0.284849 -0.597018 -2)
(-0.289089 -0.579116 -2)
(-0.292867 -0.561111 -2)
(-0.296181 -0.543015 -2)
(-0.299029 -0.52484 -2)
(-0.304759 -0.46996 -2)
(-0.305727 -0.451588 -2)
(-0.306222 -0.433198 -2)
(-0.306245 -0.414801 -2)
(-0.305794 -0.396409 -2)
(-0.304872 -0.378035 -2)
(-0.269944 -0.197921 -2)
(-0.263932 -0.180534 -2)
(-0.257475 -0.163307 -2)
(-0.0144518 0.153616 -2)
(0.000510026 0.164321 -2)
(-0.301409 -0.506598 -2)
(-0.30332 -0.4883 -2)
(-0.296472 -0.304959 -2)
(-0.293202 -0.286854 -2)
(-0.23548 -0.112702 -2)
(-0.227289 -0.0962286 -2)
(-0.218678 -0.0799714 -2)
(-0.250578 -0.146252 -2)
(-0.243244 -0.12938 -2)
(-0.190378 -0.032602 -2)
(-0.180144 -0.0173144 -2)
(-0.16952 -0.00229488 -2)
(-0.158514 0.0124467 -2)
(-0.147133 0.0269005 -2)
(0.25144 0.275005 -2)
(0.269434 0.278837 -2)
(0.28752 0.282205 -2)
(0.305687 0.285107 -2)
(-0.084869 0.0945268 -2)
(-0.0714025 0.107061 -2)
(-0.0576183 0.119245 -2)
(-0.0435255 0.13107 -2)
(-0.0291335 0.14253 -2)
(0.323922 0.287541 -2)
(0.342214 0.289506 -2)
(0.015742 0.174638 -2)
(0.0312341 0.18456 -2)
(0.046976 0.19408 -2)
(0.146082 0.242441 -2)
(0.163274 0.248991 -2)
(0.180628 0.255097 -2)
(0.198133 0.260755 -2)
(0.0629574 0.203193 -2)
(0.0791678 0.211892 -2)
(0.0955963 0.220172 -2)
(0.112232 0.228027 -2)
(0.129064 0.235452 -2)
(0.215778 0.265962 -2)
(0.233551 0.270713 -2)
(-0.0662953 -1.07954 2)
(-0.0502756 -1.10463 2)
(-0.0338841 -1.12947 2)
(-0.0171243 -1.15407 2)
(1.03247 0.222669 2)
(1.00269 0.230701 2)
(0.972786 0.238272 2)
(0.942769 0.245381 2)
(0.85211 0.263917 2)
(0.821712 0.269161 2)
(0.791237 0.273934 2)
(0.760691 0.278237 2)
(-0.249684 -0.706163 2)
(-0.239206 -0.734024 2)
(-0.259747 -0.678149 2)
(-0.228313 -0.761726 2)
(-0.217009 -0.789263 2)
(-0.205297 -0.816628 2)
(-0.126585 -0.976883 2)
(-0.112088 -1.00288 2)
(1.26556 0.142079 2)
(1.23699 0.153719 2)
(0.576355 0.294113 2)
(0.545523 0.295096 2)
(-0.193178 -0.843816 2)
(-0.180655 -0.87082 2)
(-0.167731 -0.897635 2)
(-0.15441 -0.924254 2)
(-0.140693 -0.950672 2)
(-0.0972046 -1.02866 2)
(-0.0819394 -1.05421 2)
(1.15026 0.185973 2)
(1.12103 0.195827 2)
(1.09165 0.20523 2)
(1.06213 0.214178 2)
(0.912646 0.252026 2)
(0.882424 0.258206 2)
(0.730083 0.282068 2)
(0.699419 0.285425 2)
(0.668707 0.288309 2)
(0.51468 0.295603 2)
(0.483833 0.295635 2)
(0.452989 0.29519 2)
(-0.301611 -0.341389 2)
(-0.303477 -0.359691 2)
(-0.296181 -0.543015 2)
(-0.292867 -0.561111 2)
(1.20825 0.164916 2)
(1.17933 0.175668 2)
(0.637954 0.290719 2)
(0.607167 0.292653 2)
(-0.0980089 0.0816508 2)
(-0.110814 0.0684413 2)
(-0.123275 0.0549071 2)
(-0.135384 0.0410571 2)
(-0.263932 -0.180534 2)
(-0.269944 -0.197921 2)
(-0.275507 -0.215457 2)
(-0.280618 -0.23313 2)
(-0.304759 -0.46996 2)
(-0.30332 -0.4883 2)
(-0.289089 -0.579116 2)
(-0.284849 -0.597018 2)
(-0.280151 -0.614805 2)
(0.422156 0.294269 2)
(0.39134 0.292872 2)
(0.36055 0.291 2)
(-0.209652 -0.0639409 2)
(-0.218678 -0.0799714 2)
(-0.200216 -0.0481476 2)
(-0.285272 -0.250928 2)
(-0.289468 -0.26884 2)
(-0.293202 -0.286854 2)
(-0.304872 -0.378035 2)
(-0.305794 -0.396409 2)
(-0.306245 -0.414801 2)
(-0.306222 -0.433198 2)
(-0.305727 -0.451588 2)
(-0.274997 -0.632466 2)
(-0.269391 -0.649988 2)
(-0.227289 -0.0962286 2)
(-0.23548 -0.112702 2)
(-0.243244 -0.12938 2)
(-0.296472 -0.304959 2)
(-0.299276 -0.323141 2)
(-0.301409 -0.506598 2)
(-0.299029 -0.52484 2)
(-0.147133 0.0269005 2)
(-0.158514 0.0124467 2)
(-0.16952 -0.00229488 2)
(-0.180144 -0.0173144 2)
(-0.190378 -0.032602 2)
(-0.250578 -0.146252 2)
(-0.257475 -0.163307 2)
(0.342214 0.289506 2)
(0.323922 0.287541 2)
(0.305687 0.285107 2)
(0.28752 0.282205 2)
(0.269434 0.278837 2)
(0.25144 0.275005 2)
(-0.0144518 0.153616 2)
(-0.0291335 0.14253 2)
(-0.0435255 0.13107 2)
(-0.0576183 0.119245 2)
(-0.0714025 0.107061 2)
(-0.084869 0.0945268 2)
(0.233551 0.270713 2)
(0.215778 0.265962 2)
(0.198133 0.260755 2)
(0.180628 0.255097 2)
(0.163274 0.248991 2)
(0.146082 0.242441 2)
(0.046976 0.19408 2)
(0.0312341 0.18456 2)
(0.129064 0.235452 2)
(0.112232 0.228027 2)
(0.0955963 0.220172 2)
(0.0791678 0.211892 2)
(0.0629574 0.203193 2)
(0.015742 0.174638 2)
(0.000510026 0.164321 2)
)

// edges

254
(
(0 1)
(8 0)
(9 10)
(10 11)
(11 12)
(13 14)
(15 16)
(17 15)
(16 18)
(18 19)
(19 20)
(12 21)
(21 22)
(22 23)
(2 24)
(6 2)
(24 25)
(25 26)
(26 27)
(27 28)
(29 30)
(30 31)
(31 32)
(32 33)
(33 34)
(34 35)
(35 36)
(36 37)
(37 38)
(39 40)
(40 41)
(41 17)
(23 42)
(42 43)
(43 13)
(44 45)
(1 6)
(46 44)
(14 46)
(45 47)
(47 48)
(48 49)
(50 51)
(49 52)
(52 53)
(53 8)
(28 54)
(54 55)
(55 50)
(51 56)
(56 57)
(57 29)
(58 59)
(60 58)
(61 62)
(62 63)
(63 64)
(65 66)
(67 68)
(68 69)
(69 70)
(20 71)
(71 72)
(72 9)
(38 73)
(73 74)
(74 75)
(75 76)
(76 77)
(77 78)
(79 80)
(80 81)
(81 82)
(82 83)
(83 84)
(84 60)
(64 85)
(85 86)
(86 87)
(88 89)
(78 90)
(90 91)
(91 79)
(59 92)
(92 93)
(93 61)
(94 95)
(95 96)
(96 65)
(87 97)
(97 98)
(98 94)
(66 99)
(99 100)
(100 101)
(101 102)
(102 103)
(103 67)
(104 105)
(105 106)
(106 107)
(70 108)
(108 109)
(109 110)
(110 111)
(111 112)
(112 88)
(107 113)
(113 114)
(114 39)
(89 115)
(115 116)
(116 117)
(118 119)
(119 120)
(120 121)
(117 122)
(122 123)
(123 124)
(124 125)
(125 126)
(126 118)
(121 127)
(127 128)
(128 104)
(129 130)
(130 131)
(131 132)
(132 3)
(3 7)
(133 134)
(134 135)
(135 136)
(137 138)
(138 139)
(139 140)
(141 142)
(143 141)
(142 144)
(144 145)
(145 146)
(147 148)
(149 150)
(4 5)
(5 149)
(151 152)
(146 153)
(153 154)
(154 155)
(155 156)
(156 157)
(157 147)
(148 158)
(158 159)
(159 129)
(160 161)
(161 162)
(7 4)
(162 163)
(163 133)
(136 164)
(164 165)
(165 137)
(140 166)
(166 167)
(167 168)
(152 169)
(169 170)
(170 171)
(172 173)
(174 175)
(150 176)
(176 177)
(177 160)
(168 178)
(178 179)
(179 151)
(180 181)
(181 182)
(182 183)
(184 185)
(185 186)
(186 187)
(188 189)
(175 190)
(190 191)
(191 192)
(171 193)
(193 194)
(194 195)
(196 197)
(198 196)
(187 199)
(199 200)
(200 201)
(173 202)
(202 203)
(203 204)
(204 205)
(205 206)
(206 188)
(192 207)
(207 208)
(208 143)
(197 209)
(209 210)
(210 211)
(201 212)
(212 213)
(213 172)
(189 214)
(214 215)
(215 174)
(183 216)
(216 217)
(217 218)
(218 219)
(219 220)
(220 198)
(211 221)
(221 222)
(222 184)
(195 223)
(223 224)
(224 225)
(225 226)
(226 227)
(227 228)
(229 230)
(230 231)
(231 232)
(232 233)
(233 234)
(234 180)
(228 235)
(235 236)
(236 237)
(237 238)
(238 239)
(239 240)
(241 242)
(240 243)
(243 244)
(244 245)
(245 246)
(246 247)
(247 241)
(242 248)
(248 249)
(249 229)
(0 5)
(4 1)
(2 3)
(7 6)
)

// concaveStart mixedStart nonFeatureStart
6 6 8
// internalStart flatStart openStart multipleStart
253 254 254 254
// normals

496
(
(0 0 -1)
(1 0 0)
(0.391581 0.920144 0)
(0 -0 -1)
(0.108849 0.994058 -0)
(0 -0 -1)
(0.12418 0.99226 -0)
(0 0 -1)
(0.13948 0.990225 -0)
(0 0 -1)
(0.245454 0.969408 -0)
(-0 0 -1)
(0.00101347 0.999999 -0)
(0 0 -1)
(-0.0144214 0.999896 0)
(0 -0 -1)
(0.0164493 0.999865 -0)
(0 -0 -1)
(0.0318794 0.999492 -0)
(0 0 -1)
(0.0473046 0.998881 -0)
(0 -0 -1)
(0.154749 0.987954 -0)
(0 -0 -1)
(0.16998 0.985448 -0)
(0 0 -1)
(0.185169 0.982707 -0)
(0 0 -1)
(-0.817952 -0.575287 0)
(1 2.02552e-16 0)
(0 0 -1)
(-0.82643 -0.56304 0)
(0 0 -1)
(-0.834723 -0.55067 0)
(0 0 -1)
(-0.842834 -0.538174 0)
(0 0 -1)
(-0.850756 -0.525561 0)
(0 0 -1)
(-0.907202 -0.420696 0)
(0 0 -1)
(-0.913367 -0.407138 0)
(0 0 -1)
(-0.91933 -0.393488 0)
(0 0 -1)
(-0.925089 -0.379751 0)
(0 0 -1)
(-0.930642 -0.36593 0)
(0 0 -1)
(-0.93599 -0.352027 0)
(0 0 -1)
(-0.941129 -0.338048 0)
(0 0 -1)
(-0.94606 -0.323992 -0)
(0 0 -1)
(-0.952441 -0.304723 0)
(0 -0 -1)
(-0.0606922 0.998157 0)
(0 -0 -1)
(-0.0452786 0.998974 0)
(0 0 -1)
(-0.0298544 0.999554 0)
(0 -0 -1)
(0.200316 0.979731 -0)
(0 -0 -1)
(0.215415 0.976523 -0)
(0 0 -1)
(0.230462 0.973081 -0)
(-0 -0 -1)
(0.290066 0.957007 -0)
(-0 0 -1)
(1.47034e-16 -1 0)
(-0 0 -1)
(0.27526 0.96137 -0)
(0 0 -1)
(0.260388 0.965504 -0)
(0 0 -1)
(0.304804 0.952415 -0)
(0 0 -1)
(0.319467 0.947597 -0)
(0 0 -1)
(0.334057 0.942553 -0)
(0 0 -1)
(-0.880541 -0.47397 0)
(0 0 -1)
(0.348565 0.937285 -0)
(0 0 -1)
(0.362991 0.931793 -0)
(0 0 -1)
(0.377329 0.926079 -0)
(0 0 -1)
(-0.85849 -0.512831 0)
(0 0 -1)
(-0.866033 -0.499987 0)
(0 0 -1)
(-0.873384 -0.487033 0)
(0 0 -1)
(-0.887503 -0.460802 0)
(0 0 -1)
(-0.894268 -0.447532 0)
(0 0 -1)
(-0.900835 -0.434162 0)
(0 -0 -1)
(-0.99191 0.126944 0)
(0 0 -1)
(-0.994845 0.101411 0)
(0 0 -1)
(-0.973644 0.228071 0)
(0 0 -1)
(-0.967462 0.253017 0)
(0 0 -1)
(-0.96064 0.277797 0)
(0 0 -1)
(-0.858468 0.512867 0)
(0 0 -1)
(-0.752836 0.658208 0)
(0 0 -1)
(-0.735673 0.677337 0)
(0 0 -1)
(-0.718023 0.69602 0)
(0 -0 -1)
(0.0627154 0.998031 -0)
(0 -0 -1)
(0.0781134 0.996944 -0)
(0 0 -1)
(0.0934932 0.99562 -0)
(0 0 -1)
(-0.959957 -0.280146 0)
(0 0 -1)
(-0.96684 -0.255382 0)
(0 0 -1)
(-0.973084 -0.230451 0)
(0 0 -1)
(-0.978685 -0.205367 0)
(0 0 -1)
(-0.983639 -0.180149 0)
(0 0 -1)
(-0.987944 -0.154811 0)
(0 0 -1)
(-0.998615 -0.0526031 0)
(0 0 -1)
(-0.999638 -0.026922 0)
(0 0 -1)
(-0.999999 -0.00122306 0)
(0 0 -1)
(-0.9997 0.0244775 0)
(0 0 -1)
(-0.998741 0.0501602 0)
(0 0 -1)
(-0.997122 0.0758105 0)
(0 0 -1)
(-0.953184 0.302392 0)
(0 0 -1)
(-0.945097 0.32679 0)
(0 0 -1)
(-0.936387 0.350969 0)
(0 0 -1)
(-0.581884 0.813272 0)
(0 0 -1)
(-0.991596 -0.12937 0)
(0 0 -1)
(-0.994594 -0.103844 0)
(0 0 -1)
(-0.996934 -0.0782485 0)
(0 0 -1)
(-0.98832 0.152394 0)
(0 0 -1)
(-0.984077 0.177741 0)
(0 0 -1)
(-0.979184 0.202974 0)
(0 0 -1)
(-0.895423 0.445215 0)
(0 0 -1)
(-0.883686 0.46808 0)
(0 0 -1)
(-0.871365 0.490635 0)
(0 0 -1)
(-0.927058 0.374919 0)
(0 0 -1)
(-0.917117 0.398619 0)
(0 0 -1)
(-0.90657 0.422056 0)
(0 0 -1)
(-0.845005 0.534759 0)
(0 0 -1)
(-0.830983 0.556298 0)
(0 0 -1)
(-0.816412 0.57747 0)
(0 0 -1)
(-0.801301 0.598261 0)
(0 0 -1)
(-0.785662 0.618656 0)
(0 0 -1)
(-0.769503 0.638643 0)
(0 -0 -1)
(-0.208274 0.978071 0)
(0 -0 -1)
(-0.183069 0.9831 0)
(0 0 -1)
(-0.157743 0.98748 0)
(0 0 -1)
(-0.699898 0.714243 0)
(0 0 -1)
(-0.681312 0.731993 0)
(0 0 -1)
(-0.662275 0.749261 0)
(0 0 -1)
(-0.642801 0.766034 0)
(0 0 -1)
(-0.622902 0.7823 0)
(0 0 -1)
(-0.602592 0.79805 0)
(0 -0 -1)
(-0.132314 0.991208 0)
(0 -0 -1)
(-0.106797 0.994281 0)
(0 0 -1)
(-0.0812099 0.996697 0)
(0 -0 -1)
(-0.56079 0.827958 0)
(0 -0 -1)
(-0.539328 0.842096 0)
(0 0 -1)
(-0.517508 0.855678 0)
(0 -0 -1)
(-0.356035 0.934473 0)
(0 -0 -1)
(-0.331902 0.943314 0)
(0 0 -1)
(-0.307551 0.951532 0)
(0 -0 -1)
(-0.495347 0.868695 0)
(0 -0 -1)
(-0.472858 0.881138 0)
(0 0 -1)
(-0.450058 0.892999 0)
(0 -0 -1)
(-0.426959 0.904271 0)
(0 -0 -1)
(-0.40358 0.914944 0)
(0 0 -1)
(-0.379933 0.925014 0)
(0 -0 -1)
(-0.282994 0.959122 0)
(0 -0 -1)
(-0.258254 0.966077 0)
(0 0 -1)
(-0.233339 0.972395 0)
(-0 0 1)
(-0.842834 -0.538174 0)
(-0 0 1)
(-0.834723 -0.55067 0)
(-0 0 1)
(-0.82643 -0.56304 0)
(0 0 1)
(-0.817952 -0.575287 0)
(1 2.02552e-16 0)
(0 0 1)
(0.260388 0.965504 0)
(0 0 1)
(0.245454 0.969408 0)
(0 0 1)
(0.230462 0.973081 0)
(0 0 1)
(0.16998 0.985448 0)
(0 0 1)
(0.154749 0.987954 0)
(0 0 1)
(0.13948 0.990225 0)
(0 -0 1)
(-0.93599 -0.352027 0)
(0 0 1)
(-0.941129 -0.338048 0)
(-0 0 1)
(-0.930642 -0.36593 0)
(-0 0 1)
(-0.925089 -0.379751 0)
(0 0 1)
(-0.91933 -0.393488 0)
(0 0 1)
(-0.873384 -0.487033 0)
(0 0 1)
(0.377329 0.926079 0)
(0 -0 1)
(1 0 0)
(0.391581 0.920144 0)
(0 0 1)
(0.0318794 0.999492 0)
(-0 0 1)
(-0.913367 -0.407138 0)
(-0 0 1)
(-0.907202 -0.420696 0)
(0 0 1)
(-0.900835 -0.434162 0)
(-0 0 1)
(-0.894268 -0.447532 0)
(-0 0 1)
(-0.887503 -0.460802 0)
(0 0 1)
(-0.880541 -0.47397 0)
(-0 0 1)
(-0.866033 -0.499987 0)
(-0 0 1)
(-0.85849 -0.512831 0)
(0 0 1)
(-0.850756 -0.525561 0)
(0 0 1)
(0.319467 0.947597 0)
(0 0 1)
(0.304804 0.952415 0)
(0 0 1)
(1.47034e-16 -1 0)
(0 0 1)
(0.290066 0.957007 0)
(0 0 1)
(0.27526 0.96137 0)
(0 0 1)
(0.215415 0.976523 0)
(0 0 1)
(0.200316 0.979731 0)
(0 0 1)
(0.185169 0.982707 0)
(0 0 1)
(0.12418 0.99226 0)
(0 0 1)
(0.108849 0.994058 0)
(0 0 1)
(0.0934932 0.99562 0)
(0 0 1)
(0.0164493 0.999865 0)
(0 0 1)
(0.00101347 0.999999 0)
(0 0 1)
(-0.0144214 0.999896 0)
(-0 0 1)
(-0.994845 0.101411 0)
(0 0 1)
(-0.983639 -0.180149 0)
(0 0 1)
(0.362991 0.931793 0)
(0 0 1)
(0.348565 0.937285 0)
(0 0 1)
(0.334057 0.942553 0)
(0 0 1)
(0.0781134 0.996944 0)
(0 0 1)
(0.0627154 0.998031 0)
(0 0 1)
(0.0473046 0.998881 0)
(0 0 1)
(-0.718023 0.69602 0)
(0 0 1)
(-0.735673 0.677337 0)
(0 0 1)
(-0.752836 0.658208 0)
(-0 0 1)
(-0.945097 0.32679 0)
(-0 0 1)
(-0.953184 0.302392 0)
(0 0 1)
(-0.96064 0.277797 0)
(0 0 1)
(-0.996934 -0.0782485 0)
(-0 0 1)
(-0.978685 -0.205367 0)
(-0 0 1)
(-0.973084 -0.230451 0)
(0 0 1)
(-0.96684 -0.255382 0)
(0 0 1)
(-0.0298544 0.999554 0)
(0 0 1)
(-0.0452786 0.998974 0)
(0 0 1)
(-0.0606922 0.998157 0)
(0 0 1)
(-0.871365 0.490635 0)
(0 0 1)
(-0.858468 0.512867 0)
(-0 0 1)
(-0.967462 0.253017 0)
(-0 0 1)
(-0.973644 0.228071 0)
(0 0 1)
(-0.979184 0.202974 0)
(-0 0 1)
(-0.997122 0.0758105 0)
(-0 0 1)
(-0.998741 0.0501602 0)
(0 0 1)
(-0.9997 0.0244775 0)
(-0 0 1)
(-0.999999 -0.00122306 0)
(-0 0 1)
(-0.999638 -0.026922 0)
(0 0 1)
(-0.998615 -0.0526031 0)
(-0 0 1)
(-0.959957 -0.280146 0)
(-0 0 1)
(-0.952441 -0.304723 0)
(0 0 1)
(-0.94606 -0.323992 0)
(-0 0 1)
(-0.883686 0.46808 0)
(-0 0 1)
(-0.895423 0.445215 0)
(0 0 1)
(-0.90657 0.422056 0)
(-0 0 1)
(-0.984077 0.177741 0)
(-0 0 1)
(-0.98832 0.152394 0)
(0 0 1)
(-0.99191 0.126944 0)
(-0 0 1)
(-0.994594 -0.103844 0)
(-0 0 1)
(-0.991596 -0.12937 0)
(0 0 1)
(-0.987944 -0.154811 0)
(0 0 1)
(-0.769503 0.638643 0)
(0 0 1)
(-0.785662 0.618656 0)
(0 0 1)
(-0.801301 0.598261 0)
(-0 0 1)
(-0.816412 0.57747 0)
(-0 0 1)
(-0.830983 0.556298 0)
(0 0 1)
(-0.845005 0.534759 0)
(-0 0 1)
(-0.917117 0.398619 0)
(-0 0 1)
(-0.927058 0.374919 0)
(0 0 1)
(-0.936387 0.350969 0)
(0 0 1)
(-0.0812099 0.996697 0)
(0 0 1)
(-0.106797 0.994281 0)
(0 0 1)
(-0.132314 0.991208 0)
(0 0 1)
(-0.157743 0.98748 0)
(0 0 1)
(-0.183069 0.9831 0)
(0 0 1)
(-0.208274 0.978071 0)
(0 0 1)
(-0.602592 0.79805 0)
(0 0 1)
(-0.622902 0.7823 0)
(0 0 1)
(-0.642801 0.766034 0)
(0 0 1)
(-0.662275 0.749261 0)
(0 0 1)
(-0.681312 0.731993 0)
(0 0 1)
(-0.699898 0.714243 0)
(0 0 1)
(-0.233339 0.972395 0)
(0 0 1)
(-0.258254 0.966077 0)
(0 0 1)
(-0.282994 0.959122 0)
(0 0 1)
(-0.307551 0.951532 0)
(0 0 1)
(-0.331902 0.943314 0)
(0 0 1)
(-0.356035 0.934473 0)
(0 0 1)
(-0.517508 0.855678 0)
(0 0 1)
(-0.379933 0.925014 0)
(0 0 1)
(-0.40358 0.914944 0)
(0 0 1)
(-0.426959 0.904271 0)
(0 0 1)
(-0.450058 0.892999 0)
(0 0 1)
(-0.472858 0.881138 0)
(0 0 1)
(-0.495347 0.868695 0)
(0 0 1)
(-0.539328 0.842096 0)
(0 0 1)
(-0.56079 0.827958 0)
(0 -0 1)
(-0.581884 0.813272 0)
)

// normal volume types

496
(
0
0
0
0
0
0
0
0
0
0
0
0
0
0
0
0
0
0
0
0
0
0
0
0
0
0
0
0
0
0
0
0
0
0
0
0
0
0
0
0
0
0
0
0
0
0
0
0
0
0
0
0
0
0
0
0
0
0
0
0
0
0
0
0
0
0
0
0
0
0
0
0
0
0
0
0
0
0
0
0
0
0
0
0
0
0
0
0
0
0
0
0
0
0
0
0
0
0
0
0
0
0
0
0
0
0
0
0
0
0
0
0
0
0
0
0
0
0
0
0
0
0
0
0
0
0
0
0
0
0
0
0
0
0
0
0
0
0
0
0
0
0
0
0
0
0
0
0
0
0
0
0
0
0
0
0
0
0
0
0
0
0
0
0
0
0
0
0
0
0
0
0
0
0
0
0
0
0
0
0
0
0
0
0
0
0
0
0
0
0
0
0
0
0
0
0
0
0
0
0
0
0
0
0
0
0
0
0
0
0
0
0
0
0
0
0
0
0
0
0
0
0
0
0
0
0
0
0
0
0
0
0
0
0
0
0
0
0
0
0
0
0
0
0
0
0
0
0
0
0
0
0
0
0
0
0
0
0
0
0
0
0
0
0
0
0
0
0
0
0
0
0
0
0
0
0
0
0
0
0
0
0
0
0
0
0
0
0
0
0
0
0
0
0
0
0
0
0
0
0
0
0
0
0
0
0
0
0
0
0
0
0
0
0
0
0
0
0
0
0
0
0
0
0
0
0
0
0
0
0
0
0
0
0
0
0
0
0
0
0
0
0
0
0
0
0
0
0
0
0
0
0
0
0
0
0
0
0
0
0
0
0
0
0
0
0
0
0
0
0
0
0
0
0
0
0
0
0
0
0
0
0
0
0
0
0
0
0
0
0
0
0
0
0
0
0
0
0
0
0
0
0
0
0
0
0
0
0
0
0
0
0
0
0
0
0
0
0
0
0
0
0
0
0
0
0
0
0
0
0
0
0
0
0
0
0
0
0
0
0
0
0
0
0
0
0
0
0
0
0
0
0
0
0
0
0
0
0
0
0
0
0
0
0
0
0
0
0
0
0
0
0
0
0
0
0
0
0
0
0
0
0
0
0
0
0
0
0
0
0
0
0
0
0
0
0
)

// normalDirections

254
(
2(1 -1)
2(1 -1)
2(1 -1)
2(1 -1)
2(1 -1)
2(1 -1)
2(1 -1)
2(1 -1)
2(1 -1)
2(1 -1)
2(1 -1)
2(1 -1)
2(1 -1)
2(1 -1)
2(1 -1)
2(1 -1)
2(1 -1)
2(1 -1)
2(1 -1)
2(1 -1)
2(1 -1)
2(1 -1)
2(1 -1)
2(1 -1)
2(1 -1)
2(1 -1)
2(1 -1)
2(1 -1)
2(1 -1)
2(1 -1)
2(1 -1)
2(1 -1)
2(1 -1)
2(1 -1)
2(1 -1)
2(1 -1)
2(1 -1)
2(1 -1)
2(1 -1)
2(1 -1)
2(1 -1)
2(1 -1)
2(1 -1)
2(1 -1)
2(1 -1)
2(1 -1)
2(1 -1)
2(1 -1)
2(1 -1)
2(1 -1)
2(1 -1)
2(1 -1)
2(1 -1)
2(1 -1)
2(1 -1)
2(1 -1)
2(1 -1)
2(1 -1)
2(1 -1)
2(1 -1)
2(1 -1)
2(1 -1)
2(1 -1)
2(1 -1)
2(1 -1)
2(1 -1)
2(1 -1)
2(1 -1)
2(1 -1)
2(1 -1)
2(1 -1)
2(1 -1)
2(1 -1)
2(1 -1)
2(1 -1)
2(1 -1)
2(1 -1)
2(1 -1)
2(1 -1)
2(1 -1)
2(1 -1)
2(1 -1)
2(1 -1)
2(1 -1)
2(1 -1)
2(1 -1)
2(1 -1)
2(1 -1)
2(1 -1)
2(1 -1)
2(1 -1)
2(1 -1)
2(1 -1)
2(1 -1)
2(1 -1)
2(1 -1)
2(1 -1)
2(1 -1)
2(1 -1)
2(1 -1)
2(1 -1)
2(1 -1)
2(1 -1)
2(1 -1)
2(1 -1)
2(1 -1)
2(1 -1)
2(1 -1)
2(1 -1)
2(1 -1)
2(1 -1)
2(1 -1)
2(1 -1)
2(1 -1)
2(1 -1)
2(1 -1)
2(1 -1)
2(1 -1)
2(1 -1)
2(1 -1)
2(1 -1)
2(1 -1)
2(1 -1)
2(1 -1)
2(1 -1)
2(1 -1)
2(1 -1)
2(1 -1)
2(1 -1)
2(1 -1)
2(1 -1)
2(1 -1)
2(1 -1)
2(1 -1)
2(1 -1)
2(1 -1)
2(1 -1)
2(1 -1)
2(1 -1)
2(1 -1)
2(1 -1)
2(1 -1)
2(1 -1)
2(1 -1)
2(1 -1)
2(1 -1)
2(1 -1)
2(1 -1)
2(1 -1)
2(1 -1)
2(1 -1)
2(1 -1)
2(1 -1)
2(1 -1)
2(1 -1)
2(1 -1)
2(1 -1)
2(1 -1)
2(1 -1)
2(1 -1)
2(1 -1)
2(1 -1)
2(1 -1)
2(1 -1)
2(1 -1)
2(1 -1)
2(1 -1)
2(1 -1)
2(1 -1)
2(1 -1)
2(1 -1)
2(1 -1)
2(1 -1)
2(1 -1)
2(1 -1)
2(1 -1)
2(1 -1)
2(1 -1)
2(1 -1)
2(1 -1)
2(1 -1)
2(1 -1)
2(1 -1)
2(1 -1)
2(1 -1)
2(1 -1)
2(1 -1)
2(1 -1)
2(1 -1)
2(1 -1)
2(1 -1)
2(1 -1)
2(1 -1)
2(1 -1)
2(1 -1)
2(1 -1)
2(1 -1)
2(1 -1)
2(1 -1)
2(1 -1)
2(1 -1)
2(1 -1)
2(1 -1)
2(1 -1)
2(1 -1)
2(1 -1)
2(1 -1)
2(1 -1)
2(1 -1)
2(1 -1)
2(1 -1)
2(1 -1)
2(1 -1)
2(1 -1)
2(1 -1)
2(1 -1)
2(1 -1)
2(1 -1)
2(1 -1)
2(1 -1)
2(1 -1)
2(1 -1)
2(1 -1)
2(1 -1)
2(1 -1)
2(1 -1)
2(1 -1)
2(1 -1)
2(1 -1)
2(1 -1)
2(1 -1)
2(1 -1)
2(1 -1)
2(1 -1)
2(1 -1)
2(1 -1)
2(1 -1)
2(1 -1)
2(1 -1)
2(1 -1)
2(1 -1)
2(1 -1)
2(1 -1)
2(1 -1)
2(1 -1)
2(1 -1)
2(1 -1)
2(1 -1)
2(1 -1)
2(1 -1)
2(1 -1)
2(1 -1)
2(1 -1)
2(1 -1)
)

// edgeNormals

254
(
2(0 1)
2(0 2)
2(3 4)
2(5 6)
2(7 8)
2(9 10)
2(11 12)
2(13 14)
2(15 16)
2(17 18)
2(19 20)
2(21 22)
2(23 24)
2(25 26)
2(27 28)
2(27 29)
2(30 31)
2(32 33)
2(34 35)
2(36 37)
2(38 39)
2(40 41)
2(42 43)
2(44 45)
2(46 47)
2(48 49)
2(50 51)
2(52 53)
2(54 55)
2(56 57)
2(58 59)
2(60 61)
2(62 63)
2(64 65)
2(66 67)
2(68 69)
2(70 71)
2(72 73)
2(74 75)
2(76 77)
2(78 79)
2(80 81)
2(82 83)
2(84 85)
2(86 87)
2(88 89)
2(90 91)
2(92 93)
2(94 95)
2(96 97)
2(98 99)
2(100 101)
2(102 103)
2(104 105)
2(106 107)
2(108 109)
2(110 111)
2(112 113)
2(114 115)
2(116 117)
2(118 119)
2(120 121)
2(122 123)
2(124 125)
2(126 127)
2(128 129)
2(130 131)
2(132 133)
2(134 135)
2(136 137)
2(138 139)
2(140 141)
2(142 143)
2(144 145)
2(146 147)
2(148 149)
2(150 151)
2(152 153)
2(154 155)
2(156 157)
2(158 159)
2(160 161)
2(162 163)
2(164 165)
2(166 167)
2(168 169)
2(170 171)
2(172 173)
2(174 175)
2(176 177)
2(178 179)
2(180 181)
2(182 183)
2(184 185)
2(186 187)
2(188 189)
2(190 191)
2(192 193)
2(194 195)
2(196 197)
2(198 199)
2(200 201)
2(202 203)
2(204 205)
2(206 207)
2(208 209)
2(210 211)
2(212 213)
2(214 215)
2(216 217)
2(218 219)
2(220 221)
2(222 223)
2(224 225)
2(226 227)
2(228 229)
2(230 231)
2(232 233)
2(234 235)
2(236 237)
2(238 239)
2(240 241)
2(242 243)
2(244 245)
2(246 247)
2(248 249)
2(250 251)
2(252 253)
2(254 255)
2(254 256)
2(257 258)
2(259 260)
2(261 262)
2(263 264)
2(265 266)
2(267 268)
2(269 270)
2(271 272)
2(273 274)
2(275 276)
2(277 278)
2(279 280)
2(281 282)
2(283 284)
2(283 285)
2(286 287)
2(288 289)
2(290 291)
2(292 293)
2(294 295)
2(296 297)
2(298 299)
2(300 301)
2(302 303)
2(304 305)
2(306 307)
2(308 309)
2(310 311)
2(312 313)
2(314 315)
2(316 317)
2(318 319)
2(320 321)
2(322 323)
2(324 325)
2(326 327)
2(328 329)
2(330 331)
2(332 333)
2(334 335)
2(336 337)
2(338 339)
2(340 341)
2(342 343)
2(344 345)
2(346 347)
2(348 349)
2(350 351)
2(352 353)
2(354 355)
2(356 357)
2(358 359)
2(360 361)
2(362 363)
2(364 365)
2(366 367)
2(368 369)
2(370 371)
2(372 373)
2(374 375)
2(376 377)
2(378 379)
2(380 381)
2(382 383)
2(384 385)
2(386 387)
2(388 389)
2(390 391)
2(392 393)
2(394 395)
2(396 397)
2(398 399)
2(400 401)
2(402 403)
2(404 405)
2(406 407)
2(408 409)
2(410 411)
2(412 413)
2(414 415)
2(416 417)
2(418 419)
2(420 421)
2(422 423)
2(424 425)
2(426 427)
2(428 429)
2(430 431)
2(432 433)
2(434 435)
2(436 437)
2(438 439)
2(440 441)
2(442 443)
2(444 445)
2(446 447)
2(448 449)
2(450 451)
2(452 453)
2(454 455)
2(456 457)
2(458 459)
2(460 461)
2(462 463)
2(464 465)
2(466 467)
2(468 469)
2(470 471)
2(472 473)
2(474 475)
2(476 477)
2(478 479)
2(480 481)
2(482 483)
2(484 485)
2(486 487)
2(488 489)
2(490 491)
2(492 493)
2(494 495)
2(284 2)
2(1 311)
2(255 29)
2(71 256)
)

// featurePointNormals

8
(
3(0 1 2)
3(0 1 71)
3(27 28 29)
3(254 255 256)
3(283 284 311)
3(283 284 285)
3(27 29 71)
3(254 256 311)
)

// featurePointEdges

8
(
3(0 250 1)
3(36 251 0)
3(14 252 15)
3(128 252 129)
3(143 251 157)
3(143 250 144)
3(36 253 15)
3(129 253 157)
)

// regionEdges
0()


// ************************************************************************* //
