/*--------------------------------*- C++ -*----------------------------------*\
| =========                 |                                                 |
| \\      /  F ield         | OpenFOAM: The Open Source CFD Toolbox           |
|  \\    /   O peration     | Version:  2412                                  |
|   \\  /    A nd           | Website:  www.openfoam.com                      |
|    \\/     M anipulation  |                                                 |
\*---------------------------------------------------------------------------*/
FoamFile
{
    version     2.0;
    format      ascii;
    arch        "LSB;label=32;scalar=64";
    class       featureEdgeMesh;
    location    "constant/triSurface";
    object      Spoiler.eMesh;
}
// * * * * * * * * * * * * * * * * * * * * * * * * * * * * * * * * * * * * * //


// points:

250
(
(1.29394 0.13 -2)
(1.29394 1.83104e-16 -2)
(1.34471e-16 -1.17842 -2)
(1.34471e-16 -1.17842 2)
(1.29394 1.83104e-16 2)
(1.29394 0.13 2)
(-1.0422e-16 -7.149e-18 -2)
(-1.0422e-16 -7.149e-18 2)
(1.26556 0.142079 -2)
(0.699419 0.285425 -2)
(0.730083 0.282068 -2)
(0.760691 0.278237 -2)
(0.791237 0.273934 -2)
(0.972786 0.238272 -2)
(1.00269 0.230701 -2)
(0.483833 0.295635 -2)
(0.51468 0.295603 -2)
(0.452989 0.29519 -2)
(0.545523 0.295096 -2)
(0.576355 0.294113 -2)
(0.607167 0.292653 -2)
(0.821712 0.269161 -2)
(0.85211 0.263917 -2)
(0.882424 0.258206 -2)
(-0.0171243 -1.15407 -2)
(-0.0338841 -1.12947 -2)
(-0.0502756 -1.10463 -2)
(-0.0662953 -1.07954 -2)
(-0.0819394 -1.05421 -2)
(-0.180655 -0.87082 -2)
(-0.193178 -0.843816 -2)
(-0.205297 -0.816628 -2)
(-0.217009 -0.789263 -2)
(-0.228313 -0.761726 -2)
(-0.239206 -0.734024 -2)
(-0.249684 -0.706163 -2)
(-0.259747 -0.678149 -2)
(-0.269391 -0.649988 -2)
(-0.274997 -0.632466 -2)
(0.36055 0.291 -2)
(0.39134 0.292872 -2)
(0.422156 0.294269 -2)
(0.912646 0.252026 -2)
(0.942769 0.245381 -2)
(1.06213 0.214178 -2)
(1.09165 0.20523 -2)
(1.03247 0.222669 -2)
(1.12103 0.195827 -2)
(1.15026 0.185973 -2)
(1.17933 0.175668 -2)
(-0.126585 -0.976883 -2)
(-0.140693 -0.950672 -2)
(1.20825 0.164916 -2)
(1.23699 0.153719 -2)
(-0.0972046 -1.02866 -2)
(-0.112088 -1.00288 -2)
(-0.15441 -0.924254 -2)
(-0.167731 -0.897635 -2)
(-0.301611 -0.341389 -2)
(-0.299276 -0.323141 -2)
(-0.303477 -0.359691 -2)
(-0.289468 -0.26884 -2)
(-0.285272 -0.250928 -2)
(-0.280618 -0.23313 -2)
(-0.275507 -0.215457 -2)
(-0.209652 -0.0639409 -2)
(-0.200216 -0.0481476 -2)
(-0.135384 0.0410571 -2)
(-0.123275 0.0549071 -2)
(-0.110814 0.0684413 -2)
(-0.0980089 0.0816508 -2)
(0.637954 0.290719 -2)
(0.668707 0.288309 -2)
(-0.280151 -0.614805 -2)
(-0.284849 -0.597018 -2)
(-0.289089 -0.579116 -2)
(-0.292867 -0.561111 -2)
(-0.296181 -0.543015 -2)
(-0.299029 -0.52484 -2)
(-0.304759 -0.46996 -2)
(-0.305727 -0.451588 -2)
(-0.306222 -0.433198 -2)
(-0.306245 -0.414801 -2)
(-0.305794 -0.396409 -2)
(-0.304872 -0.378035 -2)
(-0.269944 -0.197921 -2)
(-0.263932 -0.180534 -2)
(-0.257475 -0.163307 -2)
(-0.0144518 0.153616 -2)
(0.000510026 0.164321 -2)
(-0.301409 -0.506598 -2)
(-0.30332 -0.4883 -2)
(-0.296472 -0.304959 -2)
(-0.293202 -0.286854 -2)
(-0.23548 -0.112702 -2)
(-0.227289 -0.0962286 -2)
(-0.218678 -0.0799714 -2)
(-0.250578 -0.146252 -2)
(-0.243244 -0.12938 -2)
(-0.190378 -0.032602 -2)
(-0.180144 -0.0173144 -2)
(-0.16952 -0.00229488 -2)
(-0.158514 0.0124467 -2)
(-0.147133 0.0269005 -2)
(0.25144 0.275005 -2)
(0.269434 0.278837 -2)
(0.28752 0.282205 -2)
(0.305687 0.285107 -2)
(-0.084869 0.0945268 -2)
(-0.0714025 0.107061 -2)
(-0.0576183 0.119245 -2)
(-0.0435255 0.13107 -2)
(-0.0291335 0.14253 -2)
(0.323922 0.287541 -2)
(0.342214 0.289506 -2)
(0.015742 0.174638 -2)
(0.0312341 0.18456 -2)
(0.046976 0.19408 -2)
(0.146082 0.242441 -2)
(0.163274 0.248991 -2)
(0.180628 0.255097 -2)
(0.198133 0.260755 -2)
(0.0629574 0.203193 -2)
(0.0791678 0.211892 -2)
(0.0955963 0.220172 -2)
(0.112232 0.228027 -2)
(0.129064 0.235452 -2)
(0.215778 0.265962 -2)
(0.233551 0.270713 -2)
(-0.0662953 -1.07954 2)
(-0.0502756 -1.10463 2)
(-0.0338841 -1.12947 2)
(-0.0171243 -1.15407 2)
(1.03247 0.222669 2)
(1.00269 0.230701 2)
(0.972786 0.238272 2)
(0.942769 0.245381 2)
(0.85211 0.263917 2)
(0.821712 0.269161 2)
(0.791237 0.273934 2)
(0.760691 0.278237 2)
(-0.249684 -0.706163 2)
(-0.239206 -0.734024 2)
(-0.259747 -0.678149 2)
(-0.228313 -0.761726 2)
(-0.217009 -0.789263 2)
(-0.205297 -0.816628 2)
(-0.126585 -0.976883 2)
(-0.112088 -1.00288 2)
(1.26556 0.142079 2)
(1.23699 0.153719 2)
(0.576355 0.294113 2)
(0.545523 0.295096 2)
(-0.193178 -0.843816 2)
(-0.180655 -0.87082 2)
(-0.167731 -0.897635 2)
(-0.15441 -0.924254 2)
(-0.140693 -0.950672 2)
(-0.0972046 -1.02866 2)
(-0.0819394 -1.05421 2)
(1.15026 0.185973 2)
(1.12103 0.195827 2)
(1.09165 0.20523 2)
(1.06213 0.214178 2)
(0.912646 0.252026 2)
(0.882424 0.258206 2)
(0.730083 0.282068 2)
(0.699419 0.285425 2)
(0.668707 0.288309 2)
(0.51468 0.295603 2)
(0.483833 0.295635 2)
(0.452989 0.29519 2)
(-0.301611 -0.341389 2)
(-0.303477 -0.359691 2)
(-0.296181 -0.543015 2)
(-0.292867 -0.561111 2)
(1.20825 0.164916 2)
(1.17933 0.175668 2)
(0.637954 0.290719 2)
(0.607167 0.292653 2)
(-0.0980089 0.0816508 2)
(-0.110814 0.0684413 2)
(-0.123275 0.0549071 2)
(-0.135384 0.0410571 2)
(-0.263932 -0.180534 2)
(-0.269944 -0.197921 2)
(-0.275507 -0.215457 2)
(-0.280618 -0.23313 2)
(-0.304759 -0.46996 2)
(-0.30332 -0.4883 2)
(-0.289089 -0.579116 2)
(-0.284849 -0.597018 2)
(-0.280151 -0.614805 2)
(0.422156 0.294269 2)
(0.39134 0.292872 2)
(0.36055 0.291 2)
(-0.209652 -0.0639409 2)
(-0.218678 -0.0799714 2)
(-0.200216 -0.0481476 2)
(-0.285272 -0.250928 2)
(-0.289468 -0.26884 2)
(-0.293202 -0.286854 2)
(-0.304872 -0.378035 2)
(-0.305794 -0.396409 2)
(-0.306245 -0.414801 2)
(-0.306222 -0.433198 2)
(-0.305727 -0.451588 2)
(-0.274997 -0.632466 2)
(-0.269391 -0.649988 2)
(-0.227289 -0.0962286 2)
(-0.23548 -0.112702 2)
(-0.243244 -0.12938 2)
(-0.296472 -0.304959 2)
(-0.299276 -0.323141 2)
(-0.301409 -0.506598 2)
(-0.299029 -0.52484 2)
(-0.147133 0.0269005 2)
(-0.158514 0.0124467 2)
(-0.16952 -0.00229488 2)
(-0.180144 -0.0173144 2)
(-0.190378 -0.032602 2)
(-0.250578 -0.146252 2)
(-0.257475 -0.163307 2)
(0.342214 0.289506 2)
(0.323922 0.287541 2)
(0.305687 0.285107 2)
(0.28752 0.282205 2)
(0.269434 0.278837 2)
(0.25144 0.275005 2)
(-0.0144518 0.153616 2)
(-0.0291335 0.14253 2)
(-0.0435255 0.13107 2)
(-0.0576183 0.119245 2)
(-0.0714025 0.107061 2)
(-0.084869 0.0945268 2)
(0.233551 0.270713 2)
(0.215778 0.265962 2)
(0.198133 0.260755 2)
(0.180628 0.255097 2)
(0.163274 0.248991 2)
(0.146082 0.242441 2)
(0.046976 0.19408 2)
(0.0312341 0.18456 2)
(0.129064 0.235452 2)
(0.112232 0.228027 2)
(0.0955963 0.220172 2)
(0.0791678 0.211892 2)
(0.0629574 0.203193 2)
(0.015742 0.174638 2)
(0.000510026 0.164321 2)
)


// edges:

254
(
(0 1)
(8 0)
(9 10)
(10 11)
(11 12)
(13 14)
(15 16)
(17 15)
(16 18)
(18 19)
(19 20)
(12 21)
(21 22)
(22 23)
(2 24)
(6 2)
(24 25)
(25 26)
(26 27)
(27 28)
(29 30)
(30 31)
(31 32)
(32 33)
(33 34)
(34 35)
(35 36)
(36 37)
(37 38)
(39 40)
(40 41)
(41 17)
(23 42)
(42 43)
(43 13)
(44 45)
(1 6)
(46 44)
(14 46)
(45 47)
(47 48)
(48 49)
(50 51)
(49 52)
(52 53)
(53 8)
(28 54)
(54 55)
(55 50)
(51 56)
(56 57)
(57 29)
(58 59)
(60 58)
(61 62)
(62 63)
(63 64)
(65 66)
(67 68)
(68 69)
(69 70)
(20 71)
(71 72)
(72 9)
(38 73)
(73 74)
(74 75)
(75 76)
(76 77)
(77 78)
(79 80)
(80 81)
(81 82)
(82 83)
(83 84)
(84 60)
(64 85)
(85 86)
(86 87)
(88 89)
(78 90)
(90 91)
(91 79)
(59 92)
(92 93)
(93 61)
(94 95)
(95 96)
(96 65)
(87 97)
(97 98)
(98 94)
(66 99)
(99 100)
(100 101)
(101 102)
(102 103)
(103 67)
(104 105)
(105 106)
(106 107)
(70 108)
(108 109)
(109 110)
(110 111)
(111 112)
(112 88)
(107 113)
(113 114)
(114 39)
(89 115)
(115 116)
(116 117)
(118 119)
(119 120)
(120 121)
(117 122)
(122 123)
(123 124)
(124 125)
(125 126)
(126 118)
(121 127)
(127 128)
(128 104)
(129 130)
(130 131)
(131 132)
(132 3)
(3 7)
(133 134)
(134 135)
(135 136)
(137 138)
(138 139)
(139 140)
(141 142)
(143 141)
(142 144)
(144 145)
(145 146)
(147 148)
(149 150)
(4 5)
(5 149)
(151 152)
(146 153)
(153 154)
(154 155)
(155 156)
(156 157)
(157 147)
(148 158)
(158 159)
(159 129)
(160 161)
(161 162)
(7 4)
(162 163)
(163 133)
(136 164)
(164 165)
(165 137)
(140 166)
(166 167)
(167 168)
(152 169)
(169 170)
(170 171)
(172 173)
(174 175)
(150 176)
(176 177)
(177 160)
(168 178)
(178 179)
(179 151)
(180 181)
(181 182)
(182 183)
(184 185)
(185 186)
(186 187)
(188 189)
(175 190)
(190 191)
(191 192)
(171 193)
(193 194)
(194 195)
(196 197)
(198 196)
(187 199)
(199 200)
(200 201)
(173 202)
(202 203)
(203 204)
(204 205)
(205 206)
(206 188)
(192 207)
(207 208)
(208 143)
(197 209)
(209 210)
(210 211)
(201 212)
(212 213)
(213 172)
(189 214)
(214 215)
(215 174)
(183 216)
(216 217)
(217 218)
(218 219)
(219 220)
(220 198)
(211 221)
(221 222)
(222 184)
(195 223)
(223 224)
(224 225)
(225 226)
(226 227)
(227 228)
(229 230)
(230 231)
(231 232)
(232 233)
(233 234)
(234 180)
(228 235)
(235 236)
(236 237)
(237 238)
(238 239)
(239 240)
(241 242)
(240 243)
(243 244)
(244 245)
(245 246)
(246 247)
(247 241)
(242 248)
(248 249)
(249 229)
(0 5)
(4 1)
(2 3)
(7 6)
)

// * * * * * * * * * * * * * * * * * * * * * * * * * * * * * * * * * * * * * //


// ************************************************************************* //
