/*--------------------------------*- C++ -*----------------------------------*\
| =========                 |                                                 |
| \\      /  F ield         | OpenFOAM: The Open Source CFD Toolbox           |
|  \\    /   O peration     | Version:  2412                                  |
|   \\  /    A nd           | Website:  www.openfoam.com                      |
|    \\/     M anipulation  |                                                 |
\*---------------------------------------------------------------------------*/
FoamFile
{
    version     2.0;
    format      ascii;
    arch        "LSB;label=32;scalar=64";
    class       extendedFeatureEdgeMesh;
    location    "constant/extendedFeatureEdgeMesh";
    object      containerSpoiler3D.extendedFeatureEdgeMesh;
}
// * * * * * * * * * * * * * * * * * * * * * * * * * * * * * * * * * * * * * //

// points

254
(
(6.66134e-16 -7.7724 3.048)
(2.4384 -7.7724 3.048)
(0 0 3.048)
(2.4384 -8.87469e-31 3.048)
(2.4384 -8.87469e-31 -3.048)
(0 0 -3.048)
(2.4384 -7.7724 -3.048)
(6.66134e-16 -7.7724 -3.048)
(0 0 -2)
(1.77636e-15 -1.23431 -2)
(0 0 2)
(0 -1.23431 2)
(1.26556 0.0120791 -2)
(1.29394 -7.0078e-17 -2)
(0.39134 0.162872 -2)
(0.422156 0.164269 -2)
(0.36055 0.161 -2)
(0.452989 0.16519 -2)
(0.483833 0.165635 -2)
(0.51468 0.165603 -2)
(1.03247 0.0926685 -2)
(1.06213 0.0841775 -2)
(-0.2037 -0.925671 -2)
(-0.218033 -0.898341 -2)
(-0.231942 -0.870792 -2)
(-0.0191229 -1.21009 -2)
(-0.0378694 -1.18557 -2)
(-0.0562352 -1.16077 -2)
(-0.0742158 -1.13569 -2)
(-0.091807 -1.11034 -2)
(-0.109005 -1.08471 -2)
(-0.125804 -1.05883 -2)
(-0.142202 -1.03268 -2)
(-0.158195 -1.00629 -2)
(-0.173778 -0.979652 -2)
(-0.188947 -0.952777 -2)
(0.699419 0.155425 -2)
(0.730083 0.152068 -2)
(0.760691 0.148237 -2)
(0.791237 0.143934 -2)
(0.821712 0.139161 -2)
(0.85211 0.133917 -2)
(1.15026 0.0559728 -2)
(1.17933 0.0456681 -2)
(-0.00092047 0.0333223 -2)
(0.0143556 0.0437221 -2)
(0.029895 0.0537242 -2)
(0.545523 0.165096 -2)
(0.576355 0.164113 -2)
(0.607167 0.162653 -2)
(0.882424 0.128206 -2)
(0.912646 0.122026 -2)
(0.942769 0.115381 -2)
(1.09165 0.0752298 -2)
(1.12103 0.0658275 -2)
(0.637954 0.160719 -2)
(0.668707 0.158309 -2)
(0.972786 0.108272 -2)
(1.00269 0.100701 -2)
(1.20825 0.0349159 -2)
(1.23699 0.0237187 -2)
(0.0456874 0.0633217 -2)
(0.0617224 0.0725083 -2)
(0.0779892 0.081278 -2)
(-0.28624 -0.384882 -2)
(-0.281665 -0.366977 -2)
(-0.27663 -0.349196 -2)
(-0.271137 -0.331552 -2)
(0.0944769 0.0896248 -2)
(0.111175 0.0975431 -2)
(0.128071 0.105028 -2)
(0.145155 0.112074 -2)
(0.162416 0.118676 -2)
(0.179841 0.124831 -2)
(0.232987 0.14057 -2)
(0.250954 0.144895 -2)
(-0.239929 -0.854127 -2)
(-0.247483 -0.837262 -2)
(-0.254599 -0.820207 -2)
(-0.273274 -0.768019 -2)
(-0.278594 -0.750322 -2)
(-0.283455 -0.732493 -2)
(-0.287855 -0.714544 -2)
(-0.26519 -0.314054 -2)
(-0.258793 -0.296717 -2)
(-0.251951 -0.27955 -2)
(-0.201821 -0.180769 -2)
(-0.192005 -0.165112 -2)
(-0.124936 -0.0769508 -2)
(-0.112465 -0.0633127 -2)
(-0.0996465 -0.0500011 -2)
(-0.0864886 -0.0370249 -2)
(0.197419 0.130534 -2)
(0.215138 0.135781 -2)
(0.269026 0.148756 -2)
(0.287192 0.152148 -2)
(0.30544 0.155071 -2)
(-0.261272 -0.802974 -2)
(-0.267499 -0.785574 -2)
(-0.29179 -0.696487 -2)
(-0.295257 -0.678335 -2)
(-0.298254 -0.6601 -2)
(-0.30441 -0.605015 -2)
(-0.305511 -0.586568 -2)
(-0.306137 -0.568098 -2)
(-0.306285 -0.549619 -2)
(-0.305956 -0.531141 -2)
(-0.30515 -0.512679 -2)
(-0.303867 -0.494243 -2)
(-0.30211 -0.475847 -2)
(-0.299878 -0.457502 -2)
(-0.297173 -0.439221 -2)
(-0.293997 -0.421016 -2)
(-0.290352 -0.402899 -2)
(-0.244668 -0.262565 -2)
(-0.23695 -0.245774 -2)
(-0.2288 -0.229188 -2)
(-0.181788 -0.149713 -2)
(-0.171177 -0.134583 -2)
(-0.160178 -0.119732 -2)
(-0.1488 -0.10517 -2)
(-0.13705 -0.0909063 -2)
(0.323757 0.157521 -2)
(0.342131 0.159498 -2)
(-0.30078 -0.641793 -2)
(-0.302832 -0.623428 -2)
(-0.220225 -0.212818 -2)
(-0.21123 -0.196675 -2)
(-0.0730001 -0.0243926 -2)
(-0.0591899 -0.0121128 -2)
(-0.0450674 -0.000193548 -2)
(-0.0306419 0.0113571 -2)
(-0.0159229 0.0225316 -2)
(1.26556 0.0120791 2)
(1.29394 -1.40156e-16 2)
(1.23699 0.0237187 2)
(1.20825 0.0349159 2)
(1.17933 0.0456681 2)
(1.15026 0.0559728 2)
(1.12103 0.0658275 2)
(1.09165 0.0752298 2)
(1.06213 0.0841775 2)
(1.03247 0.0926685 2)
(1.00269 0.100701 2)
(0.972786 0.108272 2)
(0.942769 0.115381 2)
(0.912646 0.122026 2)
(0.882424 0.128206 2)
(0.85211 0.133917 2)
(0.821712 0.139161 2)
(0.791237 0.143934 2)
(0.760691 0.148237 2)
(0.730083 0.152068 2)
(0.699419 0.155425 2)
(0.668707 0.158309 2)
(0.637954 0.160719 2)
(0.607167 0.162653 2)
(0.576355 0.164113 2)
(0.545523 0.165096 2)
(0.51468 0.165603 2)
(0.483833 0.165635 2)
(0.452989 0.16519 2)
(0.422156 0.164269 2)
(0.39134 0.162872 2)
(0.36055 0.161 2)
(-0.218033 -0.898341 2)
(-0.2037 -0.925671 2)
(-0.247483 -0.837262 2)
(-0.239929 -0.854127 2)
(-0.231942 -0.870792 2)
(-0.188947 -0.952777 2)
(-0.173778 -0.979652 2)
(-0.158195 -1.00629 2)
(-0.142202 -1.03268 2)
(-0.125804 -1.05883 2)
(-0.109005 -1.08471 2)
(-0.091807 -1.11034 2)
(-0.0742158 -1.13569 2)
(-0.0562352 -1.16077 2)
(-0.0378694 -1.18557 2)
(-0.0191229 -1.21009 2)
(0.0143556 0.0437221 2)
(-0.00092047 0.0333223 2)
(-0.26519 -0.314054 2)
(-0.271137 -0.331552 2)
(-0.27663 -0.349196 2)
(-0.281665 -0.366977 2)
(-0.28624 -0.384882 2)
(-0.23695 -0.245774 2)
(-0.244668 -0.262565 2)
(0.287192 0.152148 2)
(0.269026 0.148756 2)
(0.162416 0.118676 2)
(0.145155 0.112074 2)
(0.128071 0.105028 2)
(0.111175 0.0975431 2)
(0.0617224 0.0725083 2)
(0.0456874 0.0633217 2)
(0.029895 0.0537242 2)
(-0.0864886 -0.0370249 2)
(-0.0996465 -0.0500011 2)
(-0.112465 -0.0633127 2)
(-0.124936 -0.0769508 2)
(-0.13705 -0.0909063 2)
(-0.201821 -0.180769 2)
(-0.21123 -0.196675 2)
(-0.251951 -0.27955 2)
(-0.258793 -0.296717 2)
(-0.290352 -0.402899 2)
(-0.293997 -0.421016 2)
(-0.297173 -0.439221 2)
(-0.299878 -0.457502 2)
(-0.30211 -0.475847 2)
(-0.303867 -0.494243 2)
(-0.306285 -0.549619 2)
(-0.306137 -0.568098 2)
(-0.295257 -0.678335 2)
(-0.29179 -0.696487 2)
(-0.287855 -0.714544 2)
(-0.283455 -0.732493 2)
(-0.278594 -0.750322 2)
(-0.273274 -0.768019 2)
(-0.267499 -0.785574 2)
(0.250954 0.144895 2)
(0.232987 0.14057 2)
(0.215138 0.135781 2)
(0.0944769 0.0896248 2)
(0.0779892 0.081278 2)
(-0.0159229 0.0225316 2)
(-0.0306419 0.0113571 2)
(-0.0450674 -0.000193548 2)
(-0.1488 -0.10517 2)
(-0.160178 -0.119732 2)
(-0.171177 -0.134583 2)
(-0.181788 -0.149713 2)
(-0.192005 -0.165112 2)
(-0.30515 -0.512679 2)
(-0.305956 -0.531141 2)
(-0.305511 -0.586568 2)
(-0.30441 -0.605015 2)
(-0.302832 -0.623428 2)
(0.342131 0.159498 2)
(0.197419 0.130534 2)
(0.179841 0.124831 2)
(-0.220225 -0.212818 2)
(-0.2288 -0.229188 2)
(-0.30078 -0.641793 2)
(-0.298254 -0.6601 2)
(-0.261272 -0.802974 2)
(-0.254599 -0.820207 2)
(0.323757 0.157521 2)
(0.30544 0.155071 2)
(-0.0591899 -0.0121128 2)
(-0.0730001 -0.0243926 2)
)

// edges

260
(
(0 1)
(2 0)
(3 2)
(1 3)
(12 13)
(14 15)
(16 14)
(15 17)
(17 18)
(18 19)
(20 21)
(22 23)
(23 24)
(9 25)
(25 26)
(26 27)
(27 28)
(28 29)
(29 30)
(30 31)
(31 32)
(32 33)
(33 34)
(34 35)
(35 22)
(36 37)
(37 38)
(38 39)
(39 40)
(40 41)
(42 43)
(44 45)
(45 46)
(19 47)
(47 48)
(48 49)
(41 50)
(50 51)
(51 52)
(21 53)
(53 54)
(54 42)
(49 55)
(55 56)
(56 36)
(52 57)
(57 58)
(58 20)
(43 59)
(59 60)
(60 12)
(46 61)
(61 62)
(62 63)
(64 65)
(65 66)
(66 67)
(63 68)
(68 69)
(69 70)
(70 71)
(71 72)
(72 73)
(74 75)
(24 76)
(76 77)
(77 78)
(79 80)
(80 81)
(81 82)
(67 83)
(83 84)
(84 85)
(86 87)
(88 89)
(89 90)
(90 91)
(73 92)
(92 93)
(93 74)
(75 94)
(94 95)
(95 96)
(78 97)
(97 98)
(98 79)
(82 99)
(99 100)
(100 101)
(102 103)
(103 104)
(104 105)
(105 106)
(106 107)
(107 108)
(108 109)
(109 110)
(110 111)
(111 112)
(112 113)
(113 64)
(85 114)
(114 115)
(115 116)
(87 117)
(117 118)
(118 119)
(119 120)
(120 121)
(121 88)
(96 122)
(122 123)
(123 16)
(101 124)
(124 125)
(125 102)
(116 126)
(126 127)
(127 86)
(91 128)
(128 129)
(129 130)
(130 131)
(131 132)
(132 44)
(10 2)
(3 4)
(4 5)
(5 8)
(6 4)
(1 6)
(133 134)
(135 133)
(136 135)
(137 136)
(138 137)
(139 138)
(140 139)
(141 140)
(142 141)
(143 142)
(144 143)
(145 144)
(146 145)
(147 146)
(148 147)
(149 148)
(150 149)
(151 150)
(152 151)
(153 152)
(154 153)
(155 154)
(156 155)
(157 156)
(158 157)
(159 158)
(160 159)
(161 160)
(162 161)
(163 162)
(164 163)
(165 166)
(167 168)
(168 169)
(169 165)
(166 170)
(170 171)
(171 172)
(172 173)
(173 174)
(174 175)
(175 176)
(176 177)
(177 178)
(178 179)
(179 180)
(180 11)
(181 182)
(183 184)
(184 185)
(185 186)
(186 187)
(188 189)
(190 191)
(192 193)
(193 194)
(194 195)
(196 197)
(197 198)
(198 181)
(199 200)
(200 201)
(201 202)
(202 203)
(204 205)
(189 206)
(206 207)
(207 183)
(187 208)
(208 209)
(209 210)
(210 211)
(211 212)
(212 213)
(214 215)
(216 217)
(217 218)
(218 219)
(219 220)
(220 221)
(221 222)
(191 223)
(223 224)
(224 225)
(195 226)
(226 227)
(227 196)
(182 228)
(228 229)
(229 230)
(203 231)
(231 232)
(232 233)
(233 234)
(234 235)
(235 204)
(213 236)
(236 237)
(237 214)
(215 238)
(238 239)
(239 240)
(164 241)
(225 242)
(242 243)
(243 192)
(205 244)
(244 245)
(245 188)
(240 246)
(246 247)
(247 216)
(222 248)
(248 249)
(249 167)
(241 250)
(250 251)
(251 190)
(230 252)
(252 253)
(253 199)
(6 7)
(7 5)
(0 7)
(13 8)
(8 9)
(134 10)
(11 10)
(11 9)
)

// concaveStart mixedStart nonFeatureStart
8 8 12
// internalStart flatStart openStart multipleStart
255 260 260 260
// normals

503
(
(0 -0 1)
(-0 -1 0)
(-1 -8.5705e-17 1.00941e-16)
(0 -0 1)
(3.63955e-31 1 -1.33737e-16)
(1 0 0)
(0 -0 -1)
(0.391581 0.920144 1.61205e-17)
(0 -0 -1)
(-0.0452786 0.998974 0)
(0 0 -1)
(-0.0606927 0.998157 0)
(0 -0 -1)
(-0.0298539 0.999554 0)
(0 -0 -1)
(-0.0144219 0.999896 0)
(0 0 -1)
(0.00101395 0.999999 -0)
(0 -0 -1)
(0.275261 0.96137 -0)
(0 0 -1)
(-0.885609 -0.464432 0)
(0 0 -1)
(-0.892675 -0.450701 -0)
(0 0 -1)
(-0.784873 -0.619656 0)
(0 0 -1)
(-0.794349 -0.607462 0)
(0 0 -1)
(-0.803634 -0.595123 0)
(0 0 -1)
(-0.812728 -0.582643 0)
(0 0 -1)
(-0.821628 -0.570024 0)
(0 0 -1)
(-0.830334 -0.557267 0)
(0 0 -1)
(-0.83884 -0.544378 0)
(0 0 -1)
(-0.847145 -0.531362 0)
(0 0 -1)
(-0.85525 -0.518216 0)
(0 0 -1)
(-0.86315 -0.504947 0)
(0 0 -1)
(-0.870845 -0.491558 0)
(0 0 -1)
(-0.878332 -0.478052 0)
(0 -0 -1)
(0.108849 0.994058 -0)
(0 -0 -1)
(0.12418 0.99226 -0)
(0 -0 -1)
(0.13948 0.990225 -0)
(0 -0 -1)
(0.154749 0.987954 -0)
(0 0 -1)
(0.16998 0.985448 -0)
(0 0 -1)
(0.334057 0.942553 -0)
(0 0 -1)
(-0.562759 0.826621 0)
(0 -0 -1)
(-0.541232 0.840873 0)
(0 -0 -1)
(0.0164488 0.999865 -0)
(0 -0 -1)
(0.0318799 0.999492 -0)
(0 0 -1)
(0.0473036 0.998881 -0)
(0 -0 -1)
(0.18517 0.982707 -0)
(0 -0 -1)
(0.200316 0.979731 -0)
(0 0 -1)
(0.215415 0.976523 -0)
(0 -0 -1)
(0.290066 0.957007 -0)
(0 -0 -1)
(0.304804 0.952415 -0)
(0 0 -1)
(0.319467 0.947597 -0)
(0 -0 -1)
(0.0627163 0.998031 -0)
(0 -0 -1)
(0.0781134 0.996944 -0)
(0 0 -1)
(0.0934927 0.99562 -0)
(0 -0 -1)
(0.230462 0.973081 -0)
(0 -0 -1)
(0.245454 0.969408 -0)
(0 0 -1)
(0.260388 0.965504 -0)
(0 -0 -1)
(0.348565 0.937285 -0)
(0 -0 -1)
(0.362991 0.931793 -0)
(0 0 -1)
(0.377329 0.926079 -0)
(0 -0 -1)
(-0.519344 0.854565 0)
(0 -0 -1)
(-0.49711 0.867687 0)
(0 0 -1)
(-0.474545 0.880231 0)
(0 0 -1)
(-0.96887 0.247569 0)
(0 0 -1)
(-0.962157 0.272496 0)
(0 0 -1)
(-0.954801 0.297244 0)
(0 -0 -1)
(-0.451664 0.892188 0)
(0 -0 -1)
(-0.428481 0.903551 0)
(0 0 -1)
(-0.405013 0.914311 0)
(0 -0 -1)
(-0.381274 0.924462 0)
(0 -0 -1)
(-0.357283 0.933996 0)
(0 0 -1)
(-0.333052 0.942909 0)
(0 0 -1)
(-0.234074 0.972219 0)
(0 0 -1)
(-0.901782 -0.432191 0)
(0 0 -1)
(-0.912639 -0.408766 0)
(0 0 -1)
(-0.922888 -0.385069 0)
(0 0 -1)
(-0.957667 -0.28788 0)
(0 0 -1)
(-0.964779 -0.26306 0)
(0 0 -1)
(-0.971249 -0.238068 0)
(0 0 -1)
(-0.94681 0.321794 0)
(0 0 -1)
(-0.938187 0.346129 0)
(0 0 -1)
(-0.928939 0.370232 0)
(0 0 -1)
(-0.847262 0.531175 0)
(0 0 -1)
(-0.737987 0.674815 0)
(0 0 -1)
(-0.720321 0.693641 0)
(0 0 -1)
(-0.702174 0.712005 0)
(0 -0 -1)
(-0.3086 0.951192 0)
(0 -0 -1)
(-0.283941 0.958842 0)
(0 0 -1)
(-0.259094 0.965852 0)
(0 -0 -1)
(-0.208898 0.977937 0)
(0 -0 -1)
(-0.183583 0.983004 0)
(0 0 -1)
(-0.158144 0.987416 0)
(0 0 -1)
(-0.93252 -0.361118 0)
(0 0 -1)
(-0.941532 -0.336924 0)
(0 0 -1)
(-0.949916 -0.312506 0)
(0 0 -1)
(-0.977071 -0.212914 0)
(0 0 -1)
(-0.982242 -0.18762 0)
(0 0 -1)
(-0.986758 -0.162202 0)
(0 0 -1)
(-0.998222 -0.0596124 0)
(0 0 -1)
(-0.999428 -0.0338242 0)
(0 0 -1)
(-0.999968 -0.00801174 0)
(0 0 -1)
(-0.999841 0.0178039 0)
(0 0 -1)
(-0.999049 0.0436116 0)
(0 0 -1)
(-0.99759 0.0693852 0)
(0 0 -1)
(-0.995466 0.0951169 0)
(0 0 -1)
(-0.992679 0.120783 0)
(0 0 -1)
(-0.98923 0.146369 0)
(0 0 -1)
(-0.985122 0.171857 0)
(0 0 -1)
(-0.980357 0.197231 0)
(0 0 -1)
(-0.974939 0.222473 0)
(0 0 -1)
(-0.919071 0.394091 0)
(0 0 -1)
(-0.908592 0.417685 0)
(0 0 -1)
(-0.897506 0.441001 0)
(0 0 -1)
(-0.833267 0.55287 0)
(0 0 -1)
(-0.818717 0.574197 0)
(0 0 -1)
(-0.803622 0.595141 0)
(0 0 -1)
(-0.78799 0.615689 0)
(0 0 -1)
(-0.771833 0.635825 0)
(0 0 -1)
(-0.755162 0.655538 0)
(0 -0 -1)
(-0.132602 0.991169 0)
(0 -0 -1)
(-0.10697 0.994262 0)
(0 0 -1)
(-0.0812674 0.996692 0)
(0 0 -1)
(-0.990616 -0.136672 0)
(0 0 -1)
(-0.993814 -0.111056 0)
(0 0 -1)
(-0.99635 -0.0853619 0)
(0 0 -1)
(-0.885823 0.464024 0)
(0 0 -1)
(-0.873548 0.486737 0)
(0 0 -1)
(-0.860692 0.509125 0)
(0 0 -1)
(-0.68356 0.729895 0)
(0 0 -1)
(-0.664489 0.747298 0)
(0 0 -1)
(-0.644976 0.764203 0)
(0 0 -1)
(-0.625033 0.780598 0)
(0 0 -1)
(-0.604674 0.796473 0)
(0 0 -1)
(-0.583911 0.811818 0)
(1.08317e-16 1 -0)
(-1 0 -0)
(-6.12323e-17 1 0)
(1 0 -0)
(3.63955e-31 1 0)
(0 0 -1)
(-1 -1.43915e-15 -0)
(0 0 -1)
(0 -1 0)
(0.391581 0.920144 0)
(0 0 1)
(0.377329 0.926079 0)
(0 0 1)
(0.362991 0.931793 0)
(0 0 1)
(0.348565 0.937285 0)
(0 0 1)
(0.334057 0.942553 0)
(0 0 1)
(0.319467 0.947597 0)
(0 0 1)
(0.304804 0.952415 0)
(0 0 1)
(0.290066 0.957007 0)
(0 0 1)
(0.275261 0.96137 0)
(0 0 1)
(0.260388 0.965504 0)
(0 0 1)
(0.245454 0.969408 0)
(0 0 1)
(0.230462 0.973081 0)
(0 0 1)
(0.215415 0.976523 0)
(0 0 1)
(0.200316 0.979731 0)
(0 0 1)
(0.18517 0.982707 0)
(0 0 1)
(0.16998 0.985448 0)
(0 0 1)
(0.154749 0.987954 0)
(0 0 1)
(0.13948 0.990225 0)
(0 0 1)
(0.12418 0.99226 0)
(0 0 1)
(0.108849 0.994058 0)
(0 0 1)
(0.0934927 0.99562 0)
(0 0 1)
(0.0781134 0.996944 0)
(0 0 1)
(0.0627163 0.998031 0)
(0 0 1)
(0.0473036 0.998881 0)
(0 0 1)
(0.0318799 0.999492 0)
(0 0 1)
(0.0164488 0.999865 0)
(0 0 1)
(0.00101395 0.999999 0)
(0 0 1)
(-0.0144219 0.999896 0)
(0 0 1)
(-0.0298539 0.999554 0)
(0 0 1)
(-0.0452786 0.998974 0)
(0 0 1)
(-0.0606927 0.998157 0)
(0 0 1)
(0 0 1)
(-0.885609 -0.464432 0)
(-0 0 1)
(-0.912639 -0.408766 0)
(-0 0 1)
(-0.901782 -0.432191 0)
(0 0 1)
(-0.892675 -0.450701 0)
(-0 0 1)
(-0.878332 -0.478052 0)
(-0 0 1)
(-0.870845 -0.491558 0)
(0 0 1)
(-0.86315 -0.504947 0)
(-0 0 1)
(-0.85525 -0.518216 0)
(-0 0 1)
(-0.847145 -0.531362 0)
(0 0 1)
(-0.83884 -0.544378 0)
(-0 0 1)
(-0.830334 -0.557267 0)
(-0 0 1)
(-0.821628 -0.570024 0)
(0 0 1)
(-0.812728 -0.582643 0)
(-0 0 1)
(-0.803634 -0.595123 0)
(-0 0 1)
(-0.794349 -0.607462 0)
(0 0 1)
(-0.784873 -0.619656 -3.48689e-16)
(0 -0 1)
(-0.562759 0.826621 0)
(0 0 1)
(-0.94681 0.321794 0)
(-0 0 1)
(-0.954801 0.297244 0)
(-0 0 1)
(-0.962157 0.272496 0)
(0 0 1)
(-0.96887 0.247569 0)
(0 0 1)
(-0.908592 0.417685 0)
(0 0 1)
(-0.183583 0.983004 0)
(0 0 1)
(-0.357283 0.933996 0)
(0 0 1)
(-0.381274 0.924462 0)
(0 0 1)
(-0.405013 0.914311 0)
(0 0 1)
(-0.49711 0.867687 0)
(0 0 1)
(-0.519344 0.854565 0)
(0 0 1)
(-0.541232 0.840873 0)
(0 0 1)
(-0.702174 0.712005 0)
(-0 0 1)
(-0.720321 0.693641 0)
(-0 0 1)
(-0.737987 0.674815 0)
(0 0 1)
(-0.755162 0.655538 0)
(0 0 1)
(-0.860692 0.509125 0)
(-0 0 1)
(-0.919071 0.394091 0)
(-0 0 1)
(-0.928939 0.370232 0)
(0 0 1)
(-0.938187 0.346129 0)
(-0 0 1)
(-0.974939 0.222473 0)
(-0 0 1)
(-0.980357 0.197231 0)
(0 0 1)
(-0.985122 0.171857 0)
(-0 0 1)
(-0.98923 0.146369 0)
(-0 0 1)
(-0.992679 0.120783 0)
(0 0 1)
(-0.995466 0.0951169 0)
(0 0 1)
(-0.999968 -0.00801174 0)
(-0 0 1)
(-0.982242 -0.18762 0)
(-0 0 1)
(-0.977071 -0.212914 0)
(0 0 1)
(-0.971249 -0.238068 0)
(-0 0 1)
(-0.964779 -0.26306 0)
(-0 0 1)
(-0.957667 -0.28788 0)
(0 0 1)
(-0.949916 -0.312506 0)
(0 0 1)
(-0.208898 0.977937 0)
(0 0 1)
(-0.234074 0.972219 0)
(0 0 1)
(-0.259094 0.965852 0)
(0 0 1)
(-0.428481 0.903551 0)
(0 0 1)
(-0.451664 0.892188 0)
(0 0 1)
(-0.474545 0.880231 0)
(0 0 1)
(-0.583911 0.811818 0)
(0 0 1)
(-0.604674 0.796473 0)
(0 0 1)
(-0.625033 0.780598 0)
(-0 0 1)
(-0.771833 0.635825 0)
(-0 0 1)
(-0.78799 0.615689 0)
(0 0 1)
(-0.803622 0.595141 0)
(-0 0 1)
(-0.818717 0.574197 0)
(-0 0 1)
(-0.833267 0.55287 0)
(0 0 1)
(-0.847262 0.531175 0)
(-0 0 1)
(-0.99759 0.0693852 0)
(-0 0 1)
(-0.999049 0.0436116 0)
(0 0 1)
(-0.999841 0.0178039 0)
(-0 0 1)
(-0.999428 -0.0338242 0)
(-0 0 1)
(-0.998222 -0.0596124 0)
(0 0 1)
(-0.99635 -0.0853619 0)
(0 0 1)
(-0.0812674 0.996692 0)
(0 0 1)
(-0.283941 0.958842 0)
(0 0 1)
(-0.3086 0.951192 0)
(0 0 1)
(-0.333052 0.942909 0)
(-0 0 1)
(-0.873548 0.486737 0)
(-0 0 1)
(-0.885823 0.464024 0)
(0 0 1)
(-0.897506 0.441001 0)
(-0 0 1)
(-0.993814 -0.111056 0)
(-0 0 1)
(-0.990616 -0.136672 0)
(0 0 1)
(-0.986758 -0.162202 0)
(-0 0 1)
(-0.941532 -0.336924 0)
(-0 0 1)
(-0.93252 -0.361118 0)
(0 0 1)
(-0.922888 -0.385069 0)
(0 0 1)
(-0.10697 0.994262 0)
(0 0 1)
(-0.132602 0.991169 0)
(0 0 1)
(-0.158144 0.987416 0)
(-0 0 1)
(-0.644976 0.764203 0)
(-0 0 1)
(-0.664489 0.747298 0)
(0 0 1)
(-0.68356 0.729895 0)
(-1 -8.5705e-17 1.59406e-15)
(-1 -1.01885e-16 0)
(5.41586e-17 1 1.26012e-16)
(-1 2.40992e-16 -4.44089e-16)
)

// normal volume types

503
(
0
0
0
0
0
0
0
0
0
0
0
0
0
0
0
0
0
0
0
0
0
0
0
0
0
0
0
0
0
0
0
0
0
0
0
0
0
0
0
0
0
0
0
0
0
0
0
0
0
0
0
0
0
0
0
0
0
0
0
0
0
0
0
0
0
0
0
0
0
0
0
0
0
0
0
0
0
0
0
0
0
0
0
0
0
0
0
0
0
0
0
0
0
0
0
0
0
0
0
0
0
0
0
0
0
0
0
0
0
0
0
0
0
0
0
0
0
0
0
0
0
0
0
0
0
0
0
0
0
0
0
0
0
0
0
0
0
0
0
0
0
0
0
0
0
0
0
0
0
0
0
0
0
0
0
0
0
0
0
0
0
0
0
0
0
0
0
0
0
0
0
0
0
0
0
0
0
0
0
0
0
0
0
0
0
0
0
0
0
0
0
0
0
0
0
0
0
0
0
0
0
0
0
0
0
0
0
0
0
0
0
0
0
0
0
0
0
0
0
0
0
0
0
0
0
0
0
0
0
0
0
0
0
0
0
0
0
0
0
0
0
0
0
0
0
0
0
0
0
0
0
0
0
0
0
0
0
0
0
0
0
0
0
0
0
0
0
0
0
0
0
0
0
0
0
0
0
0
0
0
0
0
0
0
0
0
0
0
0
0
0
0
0
0
0
0
0
0
0
0
0
0
0
0
0
0
0
0
0
0
0
0
0
0
0
0
0
0
0
0
0
0
0
0
0
0
0
0
0
0
0
0
0
0
0
0
0
0
0
0
0
0
0
0
0
0
0
0
0
0
0
0
0
0
0
0
0
0
0
0
0
0
0
0
0
0
0
0
0
0
0
0
0
0
0
0
0
0
0
0
0
0
0
0
0
0
0
0
0
0
0
0
0
0
0
0
0
0
0
0
0
0
0
0
0
0
0
0
0
0
0
0
0
0
0
0
0
0
0
0
0
0
0
0
0
0
0
0
0
0
0
0
0
0
0
0
0
0
0
0
0
0
0
0
0
0
0
0
0
0
0
0
0
0
0
0
0
0
0
0
0
0
0
0
0
0
0
0
0
0
0
0
0
0
0
0
0
0
0
0
0
0
0
0
0
0
0
0
0
0
0
0
0
0
0
0
0
0
0
0
0
0
0
)

// normalDirections

260
(
2(1 -1)
2(1 -1)
2(1 -1)
2(1 -1)
2(1 -1)
2(1 -1)
2(1 -1)
2(1 -1)
2(1 -1)
2(1 -1)
2(1 -1)
2(1 -1)
2(1 -1)
2(1 -1)
2(1 -1)
2(1 -1)
2(1 -1)
2(1 -1)
2(1 -1)
2(1 -1)
2(1 -1)
2(1 -1)
2(1 -1)
2(1 -1)
2(1 -1)
2(1 -1)
2(1 -1)
2(1 -1)
2(1 -1)
2(1 -1)
2(1 -1)
2(1 -1)
2(1 -1)
2(1 -1)
2(1 -1)
2(1 -1)
2(1 -1)
2(1 -1)
2(1 -1)
2(1 -1)
2(1 -1)
2(1 -1)
2(1 -1)
2(1 -1)
2(1 -1)
2(1 -1)
2(1 -1)
2(1 -1)
2(1 -1)
2(1 -1)
2(1 -1)
2(1 -1)
2(1 -1)
2(1 -1)
2(1 -1)
2(1 -1)
2(1 -1)
2(1 -1)
2(1 -1)
2(1 -1)
2(1 -1)
2(1 -1)
2(1 -1)
2(1 -1)
2(1 -1)
2(1 -1)
2(1 -1)
2(1 -1)
2(1 -1)
2(1 -1)
2(1 -1)
2(1 -1)
2(1 -1)
2(1 -1)
2(1 -1)
2(1 -1)
2(1 -1)
2(1 -1)
2(1 -1)
2(1 -1)
2(1 -1)
2(1 -1)
2(1 -1)
2(1 -1)
2(1 -1)
2(1 -1)
2(1 -1)
2(1 -1)
2(1 -1)
2(1 -1)
2(1 -1)
2(1 -1)
2(1 -1)
2(1 -1)
2(1 -1)
2(1 -1)
2(1 -1)
2(1 -1)
2(1 -1)
2(1 -1)
2(1 -1)
2(1 -1)
2(1 -1)
2(1 -1)
2(1 -1)
2(1 -1)
2(1 -1)
2(1 -1)
2(1 -1)
2(1 -1)
2(1 -1)
2(1 -1)
2(1 -1)
2(1 -1)
2(1 -1)
2(1 -1)
2(1 -1)
2(1 -1)
2(1 -1)
2(1 -1)
2(1 -1)
2(1 -1)
2(1 -1)
2(1 -1)
2(1 -1)
2(1 -1)
2(1 -1)
2(1 -1)
2(1 -1)
2(1 -1)
2(1 -1)
2(1 -1)
2(1 -1)
2(1 -1)
2(1 -1)
2(1 -1)
2(1 -1)
2(1 -1)
2(1 -1)
2(1 -1)
2(1 -1)
2(1 -1)
2(1 -1)
2(1 -1)
2(1 -1)
2(1 -1)
2(1 -1)
2(1 -1)
2(1 -1)
2(1 -1)
2(1 -1)
2(1 -1)
2(1 -1)
2(1 -1)
2(1 -1)
2(1 -1)
2(1 -1)
2(1 -1)
2(1 -1)
2(1 -1)
2(1 -1)
2(1 -1)
2(1 -1)
2(1 -1)
2(1 -1)
2(1 -1)
2(1 -1)
2(1 -1)
2(1 -1)
2(1 -1)
2(1 -1)
2(1 -1)
2(1 -1)
2(1 -1)
2(1 -1)
2(1 -1)
2(1 -1)
2(1 -1)
2(1 -1)
2(1 -1)
2(1 -1)
2(1 -1)
2(1 -1)
2(1 -1)
2(1 -1)
2(1 -1)
2(1 -1)
2(1 -1)
2(1 -1)
2(1 -1)
2(1 -1)
2(1 -1)
2(1 -1)
2(1 -1)
2(1 -1)
2(1 -1)
2(1 -1)
2(1 -1)
2(1 -1)
2(1 -1)
2(1 -1)
2(1 -1)
2(1 -1)
2(1 -1)
2(1 -1)
2(1 -1)
2(1 -1)
2(1 -1)
2(1 -1)
2(1 -1)
2(1 -1)
2(1 -1)
2(1 -1)
2(1 -1)
2(1 -1)
2(1 -1)
2(1 -1)
2(1 -1)
2(1 -1)
2(1 -1)
2(1 -1)
2(1 -1)
2(1 -1)
2(1 -1)
2(1 -1)
2(1 -1)
2(1 -1)
2(1 -1)
2(1 -1)
2(1 -1)
2(1 -1)
2(1 -1)
2(1 -1)
2(1 -1)
2(1 -1)
2(1 -1)
2(1 -1)
2(1 -1)
2(1 -1)
2(1 -1)
2(1 -1)
2(1 -1)
2(1 -1)
2(1 -1)
2(1 -1)
2(1 -1)
2(1 -1)
2(1 -1)
2(1 -1)
2(1 -1)
2(1 -1)
2(1 -1)
2(1 -1)
2(1 -1)
2(1 -1)
2(1 -1)
2(1 -1)
2(1 -1)
2(1 -1)
2(1 -1)
)

// edgeNormals

260
(
2(0 1)
2(0 2)
2(3 4)
2(3 5)
2(6 7)
2(8 9)
2(10 11)
2(12 13)
2(14 15)
2(16 17)
2(18 19)
2(20 21)
2(22 23)
2(24 25)
2(26 27)
2(28 29)
2(30 31)
2(32 33)
2(34 35)
2(36 37)
2(38 39)
2(40 41)
2(42 43)
2(44 45)
2(46 47)
2(48 49)
2(50 51)
2(52 53)
2(54 55)
2(56 57)
2(58 59)
2(60 61)
2(62 63)
2(64 65)
2(66 67)
2(68 69)
2(70 71)
2(72 73)
2(74 75)
2(76 77)
2(78 79)
2(80 81)
2(82 83)
2(84 85)
2(86 87)
2(88 89)
2(90 91)
2(92 93)
2(94 95)
2(96 97)
2(98 99)
2(100 101)
2(102 103)
2(104 105)
2(106 107)
2(108 109)
2(110 111)
2(112 113)
2(114 115)
2(116 117)
2(118 119)
2(120 121)
2(122 123)
2(124 125)
2(126 127)
2(128 129)
2(130 131)
2(132 133)
2(134 135)
2(136 137)
2(138 139)
2(140 141)
2(142 143)
2(144 145)
2(146 147)
2(148 149)
2(150 151)
2(152 153)
2(154 155)
2(156 157)
2(158 159)
2(160 161)
2(162 163)
2(164 165)
2(166 167)
2(168 169)
2(170 171)
2(172 173)
2(174 175)
2(176 177)
2(178 179)
2(180 181)
2(182 183)
2(184 185)
2(186 187)
2(188 189)
2(190 191)
2(192 193)
2(194 195)
2(196 197)
2(198 199)
2(200 201)
2(202 203)
2(204 205)
2(206 207)
2(208 209)
2(210 211)
2(212 213)
2(214 215)
2(216 217)
2(218 219)
2(220 221)
2(222 223)
2(224 225)
2(226 227)
2(228 229)
2(230 231)
2(232 233)
2(234 235)
2(236 237)
2(238 239)
2(240 241)
2(242 243)
2(244 245)
2(246 247)
2(248 249)
2(250 251)
2(252 253)
2(252 254)
2(251 255)
2(5 256)
2(257 258)
2(259 260)
2(261 262)
2(263 264)
2(265 266)
2(267 268)
2(269 270)
2(271 272)
2(273 274)
2(275 276)
2(277 278)
2(279 280)
2(281 282)
2(283 284)
2(285 286)
2(287 288)
2(289 290)
2(291 292)
2(293 294)
2(295 296)
2(297 298)
2(299 300)
2(301 302)
2(303 304)
2(305 306)
2(307 308)
2(309 310)
2(311 312)
2(313 314)
2(315 316)
2(317 318)
2(319 320)
2(321 322)
2(323 324)
2(325 326)
2(327 328)
2(329 330)
2(331 332)
2(333 334)
2(335 336)
2(337 338)
2(339 340)
2(341 342)
2(343 344)
2(345 346)
2(347 348)
2(349 350)
2(351 352)
2(353 354)
2(355 356)
2(357 358)
2(359 360)
2(361 362)
2(363 364)
2(365 366)
2(367 368)
2(369 370)
2(371 372)
2(373 374)
2(375 376)
2(377 378)
2(379 380)
2(381 382)
2(383 384)
2(385 386)
2(387 388)
2(389 390)
2(391 392)
2(393 394)
2(395 396)
2(397 398)
2(399 400)
2(401 402)
2(403 404)
2(405 406)
2(407 408)
2(409 410)
2(411 412)
2(413 414)
2(415 416)
2(417 418)
2(419 420)
2(421 422)
2(423 424)
2(425 426)
2(427 428)
2(429 430)
2(431 432)
2(433 434)
2(435 436)
2(437 438)
2(439 440)
2(441 442)
2(443 444)
2(445 446)
2(447 448)
2(449 450)
2(451 452)
2(453 454)
2(455 456)
2(457 458)
2(459 460)
2(461 462)
2(463 464)
2(465 466)
2(467 468)
2(469 470)
2(471 472)
2(473 474)
2(475 476)
2(477 478)
2(479 480)
2(481 482)
2(483 484)
2(485 486)
2(487 488)
2(489 490)
2(491 492)
2(493 494)
2(495 496)
2(497 498)
2(255 256)
2(253 499)
2(1 500)
2(6 501)
2(24 254)
2(248 258)
2(349 249)
2(502 350)
)

// featurePointNormals

12
(
3(0 1 2)
3(0 1 5)
3(0 2 4)
3(3 4 5)
3(250 251 253)
3(252 253 254)
3(251 255 256)
3(255 256 499)
3(252 254 6)
3(24 25 254)
3(248 249 258)
3(349 350 249)
)

// featurePointEdges

12
(
3(0 254 1)
3(3 130 0)
3(2 125 1)
3(2 126 3)
3(127 129 126)
3(127 253 128)
3(130 252 129)
3(253 254 252)
3(256 128 255)
3(256 259 13)
3(257 258 125)
3(258 259 177)
)

// regionEdges
0()


// ************************************************************************* //
