/*--------------------------------*- C++ -*----------------------------------*\
| =========                 |                                                 |
| \\      /  F ield         | OpenFOAM: The Open Source CFD Toolbox           |
|  \\    /   O peration     | Version:  2412                                  |
|   \\  /    A nd           | Website:  www.openfoam.com                      |
|    \\/     M anipulation  |                                                 |
\*---------------------------------------------------------------------------*/
FoamFile
{
    version     2.0;
    format      ascii;
    arch        "LSB;label=32;scalar=64";
    class       polyBoundaryMesh;
    location    "constant/polyMesh";
    object      boundary;
}
// * * * * * * * * * * * * * * * * * * * * * * * * * * * * * * * * * * * * * //

7
(
    inlet
    {
        type            patch;
        nFaces          285;
        startFace       5298485;
    }
    outlet
    {
        type            patch;
        nFaces          285;
        startFace       5298770;
    }
    ground
    {
        type            wall;
        inGroups        1(wall);
        nFaces          1165;
        startFace       5299055;
    }
    top
    {
        type            patch;
        nFaces          260;
        startFace       5300220;
    }
    leftSide
    {
        type            patch;
        nFaces          158635;
        startFace       5300480;
    }
    rightSide
    {
        type            patch;
        nFaces          158635;
        startFace       5459115;
    }
    containerSpoiler
    {
        type            wall;
        inGroups        1(wall);
        nFaces          71836;
        startFace       5617750;
    }
)

// ************************************************************************* //
