/*--------------------------------*- C++ -*----------------------------------*\
| =========                 |                                                 |
| \\      /  F ield         | OpenFOAM: The Open Source CFD Toolbox           |
|  \\    /   O peration     | Version:  2412                                  |
|   \\  /    A nd           | Website:  www.openfoam.com                      |
|    \\/     M anipulation  |                                                 |
\*---------------------------------------------------------------------------*/
FoamFile
{
    version     2.0;
    format      ascii;
    arch        "LSB;label=32;scalar=64";
    class       extendedFeatureEdgeMesh;
    location    "constant/extendedFeatureEdgeMesh";
    object      containerSpoiler2D.extendedFeatureEdgeMesh;
}
// * * * * * * * * * * * * * * * * * * * * * * * * * * * * * * * * * * * * * //

// points

250
(
(2.4384 -7.7724 -1.5)
(6.66134e-16 -7.7724 -1.5)
(2.4384 -8.87469e-31 -1.5)
(6.66134e-16 -7.7724 1.5)
(2.4384 -7.7724 1.5)
(2.4384 -8.87469e-31 1.5)
(1.77636e-15 -1.23431 -1.5)
(1.77636e-15 -1.23431 1.5)
(1.29394 -7.0078e-17 -1.5)
(1.26556 0.0120791 -1.5)
(0.422156 0.164269 -1.5)
(0.452989 0.16519 -1.5)
(0.483833 0.165635 -1.5)
(0.51468 0.165603 -1.5)
(1.03247 0.0926685 -1.5)
(1.06213 0.0841775 -1.5)
(0.699419 0.155425 -1.5)
(0.730083 0.152068 -1.5)
(0.760691 0.148237 -1.5)
(0.791237 0.143934 -1.5)
(0.821712 0.139161 -1.5)
(0.85211 0.133917 -1.5)
(1.15026 0.0559728 -1.5)
(1.17933 0.0456681 -1.5)
(0.545523 0.165096 -1.5)
(0.576355 0.164113 -1.5)
(0.607167 0.162653 -1.5)
(0.882424 0.128206 -1.5)
(0.912646 0.122026 -1.5)
(0.942769 0.115381 -1.5)
(1.09165 0.0752298 -1.5)
(1.12103 0.0658275 -1.5)
(0.39134 0.162872 -1.5)
(-0.0191229 -1.21009 -1.5)
(-0.0378694 -1.18557 -1.5)
(-0.0562352 -1.16077 -1.5)
(-0.0742158 -1.13569 -1.5)
(-0.091807 -1.11034 -1.5)
(-0.109005 -1.08471 -1.5)
(-0.125804 -1.05883 -1.5)
(-0.142202 -1.03268 -1.5)
(-0.158195 -1.00629 -1.5)
(-0.173778 -0.979652 -1.5)
(-0.188947 -0.952777 -1.5)
(-0.2037 -0.925671 -1.5)
(-0.218033 -0.898341 -1.5)
(0.36055 0.161 -1.5)
(-0.231942 -0.870792 -1.5)
(0.637954 0.160719 -1.5)
(0.668707 0.158309 -1.5)
(0.972786 0.108272 -1.5)
(1.00269 0.100701 -1.5)
(1.20825 0.0349159 -1.5)
(1.23699 0.0237187 -1.5)
(-0.28624 -0.384882 -1.5)
(-0.281665 -0.366977 -1.5)
(-0.27663 -0.349196 -1.5)
(-0.271137 -0.331552 -1.5)
(-0.239929 -0.854127 -1.5)
(-0.247483 -0.837262 -1.5)
(-0.254599 -0.820207 -1.5)
(-0.273274 -0.768019 -1.5)
(-0.278594 -0.750322 -1.5)
(-0.283455 -0.732493 -1.5)
(-0.287855 -0.714544 -1.5)
(-0.26519 -0.314054 -1.5)
(-0.258793 -0.296717 -1.5)
(-0.251951 -0.27955 -1.5)
(-0.201821 -0.180769 -1.5)
(-0.192005 -0.165112 -1.5)
(-0.261272 -0.802974 -1.5)
(-0.267499 -0.785574 -1.5)
(-0.29179 -0.696487 -1.5)
(-0.295257 -0.678335 -1.5)
(-0.298254 -0.6601 -1.5)
(-0.30441 -0.605015 -1.5)
(-0.305511 -0.586568 -1.5)
(-0.306137 -0.568098 -1.5)
(-0.306285 -0.549619 -1.5)
(-0.305956 -0.531141 -1.5)
(-0.30515 -0.512679 -1.5)
(-0.303867 -0.494243 -1.5)
(-0.30211 -0.475847 -1.5)
(-0.299878 -0.457502 -1.5)
(-0.297173 -0.439221 -1.5)
(-0.293997 -0.421016 -1.5)
(-0.290352 -0.402899 -1.5)
(-0.244668 -0.262565 -1.5)
(-0.23695 -0.245774 -1.5)
(-0.2288 -0.229188 -1.5)
(-0.181788 -0.149713 -1.5)
(-0.171177 -0.134583 -1.5)
(-0.160178 -0.119732 -1.5)
(-0.1488 -0.10517 -1.5)
(-0.13705 -0.0909063 -1.5)
(-0.124936 -0.0769508 -1.5)
(-0.112465 -0.0633127 -1.5)
(-0.0996465 -0.0500011 -1.5)
(-0.0864886 -0.0370249 -1.5)
(-0.30078 -0.641793 -1.5)
(-0.302832 -0.623428 -1.5)
(-0.220225 -0.212818 -1.5)
(-0.21123 -0.196675 -1.5)
(-0.00092047 0.0333223 -1.5)
(0.0143556 0.0437221 -1.5)
(0.029895 0.0537242 -1.5)
(-0.0730001 -0.0243926 -1.5)
(-0.0591899 -0.0121128 -1.5)
(-0.0450674 -0.000193548 -1.5)
(-0.0306419 0.0113571 -1.5)
(-0.0159229 0.0225316 -1.5)
(0.0456874 0.0633217 -1.5)
(0.0617224 0.0725083 -1.5)
(0.0779892 0.081278 -1.5)
(0.0944769 0.0896248 -1.5)
(0.111175 0.0975431 -1.5)
(0.128071 0.105028 -1.5)
(0.145155 0.112074 -1.5)
(0.162416 0.118676 -1.5)
(0.179841 0.124831 -1.5)
(0.197419 0.130534 -1.5)
(0.215138 0.135781 -1.5)
(0.232987 0.14057 -1.5)
(0.250954 0.144895 -1.5)
(0.269026 0.148756 -1.5)
(0.287192 0.152148 -1.5)
(0.30544 0.155071 -1.5)
(0.323757 0.157521 -1.5)
(0.342131 0.159498 -1.5)
(0.483833 0.165635 1.5)
(0.452989 0.16519 1.5)
(0.422156 0.164269 1.5)
(0.39134 0.162872 1.5)
(1.03247 0.0926685 1.5)
(1.00269 0.100701 1.5)
(0.821712 0.139161 1.5)
(0.791237 0.143934 1.5)
(0.760691 0.148237 1.5)
(1.29394 -7.0078e-17 1.5)
(1.26556 0.0120791 1.5)
(1.23699 0.0237187 1.5)
(1.15026 0.0559728 1.5)
(1.12103 0.0658275 1.5)
(0.912646 0.122026 1.5)
(0.882424 0.128206 1.5)
(0.85211 0.133917 1.5)
(0.730083 0.152068 1.5)
(0.699419 0.155425 1.5)
(0.668707 0.158309 1.5)
(0.36055 0.161 1.5)
(-0.218033 -0.898341 1.5)
(-0.2037 -0.925671 1.5)
(1.20825 0.0349159 1.5)
(1.17933 0.0456681 1.5)
(1.09165 0.0752298 1.5)
(1.06213 0.0841775 1.5)
(0.972786 0.108272 1.5)
(0.942769 0.115381 1.5)
(0.576355 0.164113 1.5)
(0.545523 0.165096 1.5)
(0.51468 0.165603 1.5)
(0.637954 0.160719 1.5)
(0.607167 0.162653 1.5)
(-0.247483 -0.837262 1.5)
(-0.239929 -0.854127 1.5)
(-0.231942 -0.870792 1.5)
(-0.109005 -1.08471 1.5)
(-0.091807 -1.11034 1.5)
(-0.0742158 -1.13569 1.5)
(-0.0562352 -1.16077 1.5)
(-0.0378694 -1.18557 1.5)
(-0.0191229 -1.21009 1.5)
(-0.188947 -0.952777 1.5)
(-0.173778 -0.979652 1.5)
(-0.158195 -1.00629 1.5)
(-0.142202 -1.03268 1.5)
(-0.125804 -1.05883 1.5)
(-0.26519 -0.314054 1.5)
(-0.271137 -0.331552 1.5)
(-0.27663 -0.349196 1.5)
(-0.281665 -0.366977 1.5)
(-0.28624 -0.384882 1.5)
(-0.124936 -0.0769508 1.5)
(-0.13705 -0.0909063 1.5)
(-0.23695 -0.245774 1.5)
(-0.244668 -0.262565 1.5)
(-0.201821 -0.180769 1.5)
(-0.21123 -0.196675 1.5)
(-0.251951 -0.27955 1.5)
(-0.258793 -0.296717 1.5)
(-0.290352 -0.402899 1.5)
(-0.293997 -0.421016 1.5)
(-0.297173 -0.439221 1.5)
(-0.299878 -0.457502 1.5)
(-0.30211 -0.475847 1.5)
(-0.303867 -0.494243 1.5)
(-0.306285 -0.549619 1.5)
(-0.306137 -0.568098 1.5)
(-0.295257 -0.678335 1.5)
(-0.29179 -0.696487 1.5)
(-0.287855 -0.714544 1.5)
(-0.283455 -0.732493 1.5)
(-0.278594 -0.750322 1.5)
(-0.273274 -0.768019 1.5)
(-0.267499 -0.785574 1.5)
(0.0143556 0.0437221 1.5)
(-0.00092047 0.0333223 1.5)
(-0.0864886 -0.0370249 1.5)
(-0.0996465 -0.0500011 1.5)
(-0.112465 -0.0633127 1.5)
(-0.1488 -0.10517 1.5)
(-0.160178 -0.119732 1.5)
(-0.171177 -0.134583 1.5)
(-0.181788 -0.149713 1.5)
(-0.192005 -0.165112 1.5)
(-0.30515 -0.512679 1.5)
(-0.305956 -0.531141 1.5)
(-0.305511 -0.586568 1.5)
(-0.30441 -0.605015 1.5)
(-0.302832 -0.623428 1.5)
(-0.0159229 0.0225316 1.5)
(-0.0306419 0.0113571 1.5)
(-0.0450674 -0.000193548 1.5)
(-0.220225 -0.212818 1.5)
(-0.2288 -0.229188 1.5)
(-0.30078 -0.641793 1.5)
(-0.298254 -0.6601 1.5)
(-0.261272 -0.802974 1.5)
(-0.254599 -0.820207 1.5)
(0.162416 0.118676 1.5)
(0.145155 0.112074 1.5)
(0.128071 0.105028 1.5)
(0.111175 0.0975431 1.5)
(0.0617224 0.0725083 1.5)
(0.0456874 0.0633217 1.5)
(0.029895 0.0537242 1.5)
(-0.0591899 -0.0121128 1.5)
(-0.0730001 -0.0243926 1.5)
(0.342131 0.159498 1.5)
(0.323757 0.157521 1.5)
(0.30544 0.155071 1.5)
(0.269026 0.148756 1.5)
(0.250954 0.144895 1.5)
(0.232987 0.14057 1.5)
(0.215138 0.135781 1.5)
(0.0944769 0.0896248 1.5)
(0.0779892 0.081278 1.5)
(0.287192 0.152148 1.5)
(0.197419 0.130534 1.5)
(0.179841 0.124831 1.5)
)

// edges

254
(
(0 1)
(2 0)
(1 6)
(8 2)
(9 8)
(10 11)
(11 12)
(12 13)
(14 15)
(16 17)
(17 18)
(18 19)
(19 20)
(20 21)
(22 23)
(13 24)
(24 25)
(25 26)
(21 27)
(27 28)
(28 29)
(15 30)
(30 31)
(31 22)
(32 10)
(6 33)
(33 34)
(34 35)
(35 36)
(36 37)
(37 38)
(38 39)
(39 40)
(40 41)
(41 42)
(42 43)
(43 44)
(44 45)
(46 32)
(45 47)
(26 48)
(48 49)
(49 16)
(29 50)
(50 51)
(51 14)
(23 52)
(52 53)
(53 9)
(54 55)
(55 56)
(56 57)
(47 58)
(58 59)
(59 60)
(61 62)
(62 63)
(63 64)
(57 65)
(65 66)
(66 67)
(68 69)
(60 70)
(70 71)
(71 61)
(64 72)
(72 73)
(73 74)
(75 76)
(76 77)
(77 78)
(78 79)
(79 80)
(80 81)
(81 82)
(82 83)
(83 84)
(84 85)
(85 86)
(86 54)
(67 87)
(87 88)
(88 89)
(69 90)
(90 91)
(91 92)
(92 93)
(93 94)
(94 95)
(95 96)
(96 97)
(97 98)
(74 99)
(99 100)
(100 75)
(89 101)
(101 102)
(102 68)
(103 104)
(104 105)
(98 106)
(106 107)
(107 108)
(108 109)
(109 110)
(110 103)
(105 111)
(111 112)
(112 113)
(113 114)
(114 115)
(115 116)
(116 117)
(117 118)
(118 119)
(119 120)
(120 121)
(121 122)
(122 123)
(123 124)
(124 125)
(125 126)
(126 127)
(128 46)
(127 128)
(3 4)
(7 3)
(4 5)
(129 130)
(130 131)
(131 132)
(133 134)
(135 136)
(136 137)
(5 138)
(138 139)
(139 140)
(141 142)
(143 144)
(144 145)
(145 135)
(137 146)
(146 147)
(147 148)
(132 149)
(150 151)
(140 152)
(152 153)
(153 141)
(142 154)
(154 155)
(155 133)
(134 156)
(156 157)
(157 143)
(158 159)
(159 160)
(160 129)
(148 161)
(161 162)
(162 158)
(163 164)
(164 165)
(165 150)
(166 167)
(167 168)
(168 169)
(169 170)
(170 171)
(171 7)
(151 172)
(172 173)
(173 174)
(174 175)
(175 176)
(176 166)
(177 178)
(178 179)
(179 180)
(180 181)
(182 183)
(184 185)
(186 187)
(185 188)
(188 189)
(189 177)
(181 190)
(190 191)
(191 192)
(192 193)
(193 194)
(194 195)
(196 197)
(198 199)
(199 200)
(200 201)
(201 202)
(202 203)
(203 204)
(205 206)
(207 208)
(208 209)
(209 182)
(183 210)
(210 211)
(211 212)
(212 213)
(213 214)
(214 186)
(195 215)
(215 216)
(216 196)
(197 217)
(217 218)
(218 219)
(206 220)
(220 221)
(221 222)
(187 223)
(223 224)
(224 184)
(219 225)
(225 226)
(226 198)
(204 227)
(227 228)
(228 163)
(229 230)
(230 231)
(231 232)
(233 234)
(234 235)
(235 205)
(222 236)
(236 237)
(237 207)
(238 239)
(239 240)
(241 242)
(242 243)
(243 244)
(232 245)
(245 246)
(246 233)
(149 238)
(240 247)
(247 241)
(244 248)
(248 249)
(249 229)
(5 2)
(0 4)
(3 1)
(7 6)
)

// concaveStart mixedStart nonFeatureStart
6 6 8
// internalStart flatStart openStart multipleStart
253 254 254 254
// normals

496
(
(0 0 -1)
(0 -1 0)
(1 0 0)
(0 0 -1)
(-1 1.69808e-16 0)
(0 0 -1)
(-6.12323e-17 1 0)
(0 0 -1)
(0.391581 0.920144 0)
(0 -0 -1)
(-0.0298539 0.999554 0)
(0 -0 -1)
(-0.0144219 0.999896 0)
(0 0 -1)
(0.00101395 0.999999 -0)
(0 -0 -1)
(0.275261 0.96137 -0)
(0 -0 -1)
(0.108849 0.994058 -0)
(0 -0 -1)
(0.12418 0.99226 -0)
(0 -0 -1)
(0.13948 0.990225 -0)
(0 -0 -1)
(0.154749 0.987954 -0)
(0 0 -1)
(0.16998 0.985448 -0)
(0 0 -1)
(0.334057 0.942553 -0)
(0 -0 -1)
(0.0164488 0.999865 -0)
(0 -0 -1)
(0.0318799 0.999492 -0)
(0 0 -1)
(0.0473036 0.998881 -0)
(0 -0 -1)
(0.18517 0.982707 -0)
(0 -0 -1)
(0.200316 0.979731 -0)
(0 0 -1)
(0.215415 0.976523 -0)
(0 -0 -1)
(0.290066 0.957007 -0)
(0 -0 -1)
(0.304804 0.952415 -0)
(0 0 -1)
(0.319467 0.947597 -0)
(0 0 -1)
(-0.0452786 0.998974 0)
(0 0 -1)
(-0.784873 -0.619656 0)
(0 0 -1)
(-0.794349 -0.607462 0)
(0 0 -1)
(-0.803634 -0.595123 0)
(0 0 -1)
(-0.812728 -0.582643 0)
(0 0 -1)
(-0.821628 -0.570024 0)
(0 0 -1)
(-0.830334 -0.557267 0)
(0 0 -1)
(-0.83884 -0.544378 0)
(0 0 -1)
(-0.847145 -0.531362 0)
(0 0 -1)
(-0.85525 -0.518216 0)
(0 0 -1)
(-0.86315 -0.504947 0)
(0 0 -1)
(-0.870845 -0.491558 0)
(0 0 -1)
(-0.878332 -0.478052 0)
(0 0 -1)
(-0.885609 -0.464432 0)
(0 0 -1)
(-0.0606927 0.998157 0)
(0 0 -1)
(-0.892675 -0.450701 -0)
(0 -0 -1)
(0.0627163 0.998031 -0)
(0 -0 -1)
(0.0781134 0.996944 -0)
(0 0 -1)
(0.0934927 0.99562 -0)
(0 -0 -1)
(0.230462 0.973081 -0)
(0 -0 -1)
(0.245454 0.969408 -0)
(0 0 -1)
(0.260388 0.965504 -0)
(0 -0 -1)
(0.348565 0.937285 -0)
(0 -0 -1)
(0.362991 0.931793 -0)
(0 0 -1)
(0.377329 0.926079 -0)
(0 0 -1)
(-0.96887 0.247569 0)
(0 0 -1)
(-0.962157 0.272496 0)
(0 0 -1)
(-0.954801 0.297244 0)
(0 0 -1)
(-0.901782 -0.432191 0)
(0 0 -1)
(-0.912639 -0.408766 0)
(0 0 -1)
(-0.922888 -0.385069 0)
(0 0 -1)
(-0.957667 -0.28788 0)
(0 0 -1)
(-0.964779 -0.26306 0)
(0 0 -1)
(-0.971249 -0.238068 0)
(0 0 -1)
(-0.94681 0.321794 0)
(0 0 -1)
(-0.938187 0.346129 0)
(0 0 -1)
(-0.928939 0.370232 0)
(0 0 -1)
(-0.847262 0.531175 0)
(0 0 -1)
(-0.93252 -0.361118 0)
(0 0 -1)
(-0.941532 -0.336924 0)
(0 0 -1)
(-0.949916 -0.312506 0)
(0 0 -1)
(-0.977071 -0.212914 0)
(0 0 -1)
(-0.982242 -0.18762 0)
(0 0 -1)
(-0.986758 -0.162202 0)
(0 0 -1)
(-0.998222 -0.0596124 0)
(0 0 -1)
(-0.999428 -0.0338242 0)
(0 0 -1)
(-0.999968 -0.00801174 0)
(0 0 -1)
(-0.999841 0.0178039 0)
(0 0 -1)
(-0.999049 0.0436116 0)
(0 0 -1)
(-0.99759 0.0693852 0)
(0 0 -1)
(-0.995466 0.0951169 0)
(0 0 -1)
(-0.992679 0.120783 0)
(0 0 -1)
(-0.98923 0.146369 0)
(0 0 -1)
(-0.985122 0.171857 0)
(0 0 -1)
(-0.980357 0.197231 0)
(0 0 -1)
(-0.974939 0.222473 0)
(0 0 -1)
(-0.919071 0.394091 0)
(0 0 -1)
(-0.908592 0.417685 0)
(0 0 -1)
(-0.897506 0.441001 0)
(0 0 -1)
(-0.833267 0.55287 0)
(0 0 -1)
(-0.818717 0.574197 0)
(0 0 -1)
(-0.803622 0.595141 0)
(0 0 -1)
(-0.78799 0.615689 0)
(0 0 -1)
(-0.771833 0.635825 0)
(0 0 -1)
(-0.755162 0.655538 0)
(0 0 -1)
(-0.737987 0.674815 0)
(0 0 -1)
(-0.720321 0.693641 0)
(0 0 -1)
(-0.702174 0.712005 0)
(0 0 -1)
(-0.990616 -0.136672 0)
(0 0 -1)
(-0.993814 -0.111056 0)
(0 0 -1)
(-0.99635 -0.0853619 0)
(0 0 -1)
(-0.885823 0.464024 0)
(0 0 -1)
(-0.873548 0.486737 0)
(0 0 -1)
(-0.860692 0.509125 0)
(0 0 -1)
(-0.562759 0.826621 0)
(0 0 -1)
(-0.541232 0.840873 0)
(0 0 -1)
(-0.68356 0.729895 0)
(0 0 -1)
(-0.664489 0.747298 0)
(0 0 -1)
(-0.644976 0.764203 0)
(0 0 -1)
(-0.625033 0.780598 0)
(0 0 -1)
(-0.604674 0.796473 0)
(0 0 -1)
(-0.583911 0.811818 0)
(0 0 -1)
(-0.519344 0.854565 0)
(0 0 -1)
(-0.49711 0.867687 0)
(0 0 -1)
(-0.474545 0.880231 0)
(0 0 -1)
(-0.451664 0.892188 0)
(0 0 -1)
(-0.428481 0.903551 0)
(0 0 -1)
(-0.405013 0.914311 0)
(0 0 -1)
(-0.381274 0.924462 0)
(0 0 -1)
(-0.357283 0.933996 0)
(0 0 -1)
(-0.333052 0.942909 0)
(0 0 -1)
(-0.3086 0.951192 0)
(0 0 -1)
(-0.283941 0.958842 0)
(0 0 -1)
(-0.259094 0.965852 0)
(0 0 -1)
(-0.234074 0.972219 0)
(0 0 -1)
(-0.208898 0.977937 0)
(0 0 -1)
(-0.183583 0.983004 0)
(0 0 -1)
(-0.158144 0.987416 0)
(0 0 -1)
(-0.132602 0.991169 0)
(0 0 -1)
(-0.0812674 0.996692 0)
(-0.10697 0.994262 0)
(0 0 1)
(-0 -1 -0)
(-1 1.69808e-16 0)
(0 -0 1)
(1 0 0)
(0 0 1)
(-0.0144219 0.999896 0)
(0 0 1)
(-0.0298539 0.999554 0)
(0 0 1)
(-0.0452786 0.998974 0)
(0 0 1)
(0.260388 0.965504 0)
(0 0 1)
(0.154749 0.987954 0)
(0 0 1)
(0.13948 0.990225 0)
(0 0 1)
(-6.12323e-17 1 0)
(0 0 1)
(0.391581 0.920144 0)
(0 0 1)
(0.377329 0.926079 0)
(0 0 1)
(0.319467 0.947597 0)
(0 0 1)
(0.200316 0.979731 0)
(0 0 1)
(0.18517 0.982707 0)
(0 0 1)
(0.16998 0.985448 0)
(0 0 1)
(0.12418 0.99226 0)
(0 0 1)
(0.108849 0.994058 0)
(0 0 1)
(0.0934927 0.99562 0)
(-0 0 1)
(-0.0606927 0.998157 0)
(-0 0 1)
(-0.885609 -0.464432 0)
(0 0 1)
(0.362991 0.931793 0)
(0 0 1)
(0.348565 0.937285 0)
(0 0 1)
(0.334057 0.942553 0)
(0 0 1)
(0.304804 0.952415 0)
(0 0 1)
(0.290066 0.957007 0)
(0 0 1)
(0.275261 0.96137 0)
(0 0 1)
(0.245454 0.969408 0)
(0 0 1)
(0.230462 0.973081 0)
(0 0 1)
(0.215415 0.976523 0)
(0 0 1)
(0.0318799 0.999492 0)
(0 0 1)
(0.0164488 0.999865 0)
(0 0 1)
(0.00101395 0.999999 0)
(0 0 1)
(0.0781134 0.996944 0)
(0 0 1)
(0.0627163 0.998031 0)
(0 0 1)
(0.0473036 0.998881 0)
(-0 0 1)
(-0.912639 -0.408766 0)
(-0 0 1)
(-0.901782 -0.432191 0)
(0 0 1)
(-0.892675 -0.450701 0)
(-0 0 1)
(-0.830334 -0.557267 0)
(-0 0 1)
(-0.821628 -0.570024 0)
(0 0 1)
(-0.812728 -0.582643 0)
(-0 0 1)
(-0.803634 -0.595123 0)
(-0 0 1)
(-0.794349 -0.607462 0)
(0 0 1)
(-0.784873 -0.619656 0)
(-0 0 1)
(-0.878332 -0.478052 0)
(-0 0 1)
(-0.870845 -0.491558 0)
(0 0 1)
(-0.86315 -0.504947 0)
(-0 0 1)
(-0.85525 -0.518216 0)
(-0 0 1)
(-0.847145 -0.531362 0)
(0 0 1)
(-0.83884 -0.544378 0)
(0 0 1)
(-0.94681 0.321794 0)
(-0 0 1)
(-0.954801 0.297244 0)
(-0 0 1)
(-0.962157 0.272496 0)
(0 0 1)
(-0.96887 0.247569 0)
(-0 0 1)
(-0.755162 0.655538 0)
(0 0 1)
(-0.908592 0.417685 0)
(0 0 1)
(-0.860692 0.509125 0)
(-0 0 1)
(-0.919071 0.394091 0)
(-0 0 1)
(-0.928939 0.370232 0)
(0 0 1)
(-0.938187 0.346129 0)
(-0 0 1)
(-0.974939 0.222473 0)
(-0 0 1)
(-0.980357 0.197231 0)
(0 0 1)
(-0.985122 0.171857 0)
(-0 0 1)
(-0.98923 0.146369 0)
(-0 0 1)
(-0.992679 0.120783 0)
(0 0 1)
(-0.995466 0.0951169 0)
(0 0 1)
(-0.999968 -0.00801174 0)
(-0 0 1)
(-0.982242 -0.18762 0)
(-0 0 1)
(-0.977071 -0.212914 0)
(0 0 1)
(-0.971249 -0.238068 0)
(-0 0 1)
(-0.964779 -0.26306 0)
(-0 0 1)
(-0.957667 -0.28788 0)
(0 0 1)
(-0.949916 -0.312506 0)
(0 0 1)
(-0.562759 0.826621 0)
(-0 0 1)
(-0.702174 0.712005 0)
(-0 0 1)
(-0.720321 0.693641 0)
(0 0 1)
(-0.737987 0.674815 0)
(-0 0 1)
(-0.771833 0.635825 0)
(-0 0 1)
(-0.78799 0.615689 0)
(0 0 1)
(-0.803622 0.595141 0)
(-0 0 1)
(-0.818717 0.574197 0)
(-0 0 1)
(-0.833267 0.55287 0)
(0 0 1)
(-0.847262 0.531175 0)
(-0 0 1)
(-0.99759 0.0693852 0)
(-0 0 1)
(-0.999049 0.0436116 0)
(0 0 1)
(-0.999841 0.0178039 0)
(-0 0 1)
(-0.999428 -0.0338242 0)
(-0 0 1)
(-0.998222 -0.0596124 0)
(0 0 1)
(-0.99635 -0.0853619 0)
(-0 0 1)
(-0.583911 0.811818 0)
(-0 0 1)
(-0.604674 0.796473 0)
(0 0 1)
(-0.625033 0.780598 0)
(-0 0 1)
(-0.873548 0.486737 0)
(-0 0 1)
(-0.885823 0.464024 0)
(0 0 1)
(-0.897506 0.441001 0)
(-0 0 1)
(-0.993814 -0.111056 0)
(-0 0 1)
(-0.990616 -0.136672 0)
(0 0 1)
(-0.986758 -0.162202 0)
(-0 0 1)
(-0.941532 -0.336924 0)
(-0 0 1)
(-0.93252 -0.361118 0)
(0 0 1)
(-0.922888 -0.385069 0)
(-0 0 1)
(-0.357283 0.933996 0)
(-0 0 1)
(-0.381274 0.924462 0)
(0 0 1)
(-0.405013 0.914311 0)
(-0 0 1)
(-0.49711 0.867687 0)
(-0 0 1)
(-0.519344 0.854565 0)
(0 0 1)
(-0.541232 0.840873 0)
(-0 0 1)
(-0.644976 0.764203 0)
(-0 0 1)
(-0.664489 0.747298 0)
(0 0 1)
(-0.68356 0.729895 0)
(0 0 1)
(-0.10697 0.994262 0)
(-0.132602 0.991169 0)
(-0 0 1)
(-0.208898 0.977937 0)
(-0 0 1)
(-0.234074 0.972219 0)
(0 0 1)
(-0.259094 0.965852 0)
(-0 0 1)
(-0.428481 0.903551 0)
(-0 0 1)
(-0.451664 0.892188 0)
(0 0 1)
(-0.474545 0.880231 0)
(-0 0 1)
(-0.0812674 0.996692 0)
(-0 0 1)
(-0.158144 0.987416 0)
(0 0 1)
(-0.183583 0.983004 0)
(-0 0 1)
(-0.283941 0.958842 0)
(-0 0 1)
(-0.3086 0.951192 0)
(0 0 1)
(-0.333052 0.942909 0)
)

// normal volume types

496
(
0
0
0
0
0
0
0
0
0
0
0
0
0
0
0
0
0
0
0
0
0
0
0
0
0
0
0
0
0
0
0
0
0
0
0
0
0
0
0
0
0
0
0
0
0
0
0
0
0
0
0
0
0
0
0
0
0
0
0
0
0
0
0
0
0
0
0
0
0
0
0
0
0
0
0
0
0
0
0
0
0
0
0
0
0
0
0
0
0
0
0
0
0
0
0
0
0
0
0
0
0
0
0
0
0
0
0
0
0
0
0
0
0
0
0
0
0
0
0
0
0
0
0
0
0
0
0
0
0
0
0
0
0
0
0
0
0
0
0
0
0
0
0
0
0
0
0
0
0
0
0
0
0
0
0
0
0
0
0
0
0
0
0
0
0
0
0
0
0
0
0
0
0
0
0
0
0
0
0
0
0
0
0
0
0
0
0
0
0
0
0
0
0
0
0
0
0
0
0
0
0
0
0
0
0
0
0
0
0
0
0
0
0
0
0
0
0
0
0
0
0
0
0
0
0
0
0
0
0
0
0
0
0
0
0
0
0
0
0
0
0
0
0
0
0
0
0
0
0
0
0
0
0
0
0
0
0
0
0
0
0
0
0
0
0
0
0
0
0
0
0
0
0
0
0
0
0
0
0
0
0
0
0
0
0
0
0
0
0
0
0
0
0
0
0
0
0
0
0
0
0
0
0
0
0
0
0
0
0
0
0
0
0
0
0
0
0
0
0
0
0
0
0
0
0
0
0
0
0
0
0
0
0
0
0
0
0
0
0
0
0
0
0
0
0
0
0
0
0
0
0
0
0
0
0
0
0
0
0
0
0
0
0
0
0
0
0
0
0
0
0
0
0
0
0
0
0
0
0
0
0
0
0
0
0
0
0
0
0
0
0
0
0
0
0
0
0
0
0
0
0
0
0
0
0
0
0
0
0
0
0
0
0
0
0
0
0
0
0
0
0
0
0
0
0
0
0
0
0
0
0
0
0
0
0
0
0
0
0
0
0
0
0
0
0
0
0
0
0
0
0
0
0
0
0
0
0
0
0
0
0
0
0
0
0
0
0
0
0
0
0
0
0
0
0
0
0
0
0
0
0
0
0
0
0
0
0
0
0
0
0
0
0
0
0
0
)

// normalDirections

254
(
2(1 -1)
2(1 -1)
2(1 -1)
2(1 -1)
2(1 -1)
2(1 -1)
2(1 -1)
2(1 -1)
2(1 -1)
2(1 -1)
2(1 -1)
2(1 -1)
2(1 -1)
2(1 -1)
2(1 -1)
2(1 -1)
2(1 -1)
2(1 -1)
2(1 -1)
2(1 -1)
2(1 -1)
2(1 -1)
2(1 -1)
2(1 -1)
2(1 -1)
2(1 -1)
2(1 -1)
2(1 -1)
2(1 -1)
2(1 -1)
2(1 -1)
2(1 -1)
2(1 -1)
2(1 -1)
2(1 -1)
2(1 -1)
2(1 -1)
2(1 -1)
2(1 -1)
2(1 -1)
2(1 -1)
2(1 -1)
2(1 -1)
2(1 -1)
2(1 -1)
2(1 -1)
2(1 -1)
2(1 -1)
2(1 -1)
2(1 -1)
2(1 -1)
2(1 -1)
2(1 -1)
2(1 -1)
2(1 -1)
2(1 -1)
2(1 -1)
2(1 -1)
2(1 -1)
2(1 -1)
2(1 -1)
2(1 -1)
2(1 -1)
2(1 -1)
2(1 -1)
2(1 -1)
2(1 -1)
2(1 -1)
2(1 -1)
2(1 -1)
2(1 -1)
2(1 -1)
2(1 -1)
2(1 -1)
2(1 -1)
2(1 -1)
2(1 -1)
2(1 -1)
2(1 -1)
2(1 -1)
2(1 -1)
2(1 -1)
2(1 -1)
2(1 -1)
2(1 -1)
2(1 -1)
2(1 -1)
2(1 -1)
2(1 -1)
2(1 -1)
2(1 -1)
2(1 -1)
2(1 -1)
2(1 -1)
2(1 -1)
2(1 -1)
2(1 -1)
2(1 -1)
2(1 -1)
2(1 -1)
2(1 -1)
2(1 -1)
2(1 -1)
2(1 -1)
2(1 -1)
2(1 -1)
2(1 -1)
2(1 -1)
2(1 -1)
2(1 -1)
2(1 -1)
2(1 -1)
2(1 -1)
2(1 -1)
2(1 -1)
2(1 -1)
2(1 -1)
2(1 -1)
2(1 -1)
2(1 -1)
2(1 -1)
2(1 -1)
2(1 -1)
2(1 -1)
2(1 -1)
2(1 -1)
2(1 -1)
2(1 -1)
2(1 -1)
2(1 -1)
2(1 -1)
2(1 -1)
2(1 -1)
2(1 -1)
2(1 -1)
2(1 -1)
2(1 -1)
2(1 -1)
2(1 -1)
2(1 -1)
2(1 -1)
2(1 -1)
2(1 -1)
2(1 -1)
2(1 -1)
2(1 -1)
2(1 -1)
2(1 -1)
2(1 -1)
2(1 -1)
2(1 -1)
2(1 -1)
2(1 -1)
2(1 -1)
2(1 -1)
2(1 -1)
2(1 -1)
2(1 -1)
2(1 -1)
2(1 -1)
2(1 -1)
2(1 -1)
2(1 -1)
2(1 -1)
2(1 -1)
2(1 -1)
2(1 -1)
2(1 -1)
2(1 -1)
2(1 -1)
2(1 -1)
2(1 -1)
2(1 -1)
2(1 -1)
2(1 -1)
2(1 -1)
2(1 -1)
2(1 -1)
2(1 -1)
2(1 -1)
2(1 -1)
2(1 -1)
2(1 -1)
2(1 -1)
2(1 -1)
2(1 -1)
2(1 -1)
2(1 -1)
2(1 -1)
2(1 -1)
2(1 -1)
2(1 -1)
2(1 -1)
2(1 -1)
2(1 -1)
2(1 -1)
2(1 -1)
2(1 -1)
2(1 -1)
2(1 -1)
2(1 -1)
2(1 -1)
2(1 -1)
2(1 -1)
2(1 -1)
2(1 -1)
2(1 -1)
2(1 -1)
2(1 -1)
2(1 -1)
2(1 -1)
2(1 -1)
2(1 -1)
2(1 -1)
2(1 -1)
2(1 -1)
2(1 -1)
2(1 -1)
2(1 -1)
2(1 -1)
2(1 -1)
2(1 -1)
2(1 -1)
2(1 -1)
2(1 -1)
2(1 -1)
2(1 -1)
2(1 -1)
2(1 -1)
2(1 -1)
2(1 -1)
2(1 -1)
2(1 -1)
2(1 -1)
2(1 -1)
2(1 -1)
2(1 -1)
2(1 -1)
2(1 -1)
2(1 -1)
2(1 -1)
2(1 -1)
2(1 -1)
2(1 -1)
2(1 -1)
2(1 -1)
2(1 -1)
2(1 -1)
2(1 -1)
2(1 -1)
2(1 -1)
2(1 -1)
2(1 -1)
2(1 -1)
)

// edgeNormals

254
(
2(0 1)
2(0 2)
2(3 4)
2(5 6)
2(7 8)
2(9 10)
2(11 12)
2(13 14)
2(15 16)
2(17 18)
2(19 20)
2(21 22)
2(23 24)
2(25 26)
2(27 28)
2(29 30)
2(31 32)
2(33 34)
2(35 36)
2(37 38)
2(39 40)
2(41 42)
2(43 44)
2(45 46)
2(47 48)
2(49 50)
2(51 52)
2(53 54)
2(55 56)
2(57 58)
2(59 60)
2(61 62)
2(63 64)
2(65 66)
2(67 68)
2(69 70)
2(71 72)
2(73 74)
2(75 76)
2(77 78)
2(79 80)
2(81 82)
2(83 84)
2(85 86)
2(87 88)
2(89 90)
2(91 92)
2(93 94)
2(95 96)
2(97 98)
2(99 100)
2(101 102)
2(103 104)
2(105 106)
2(107 108)
2(109 110)
2(111 112)
2(113 114)
2(115 116)
2(117 118)
2(119 120)
2(121 122)
2(123 124)
2(125 126)
2(127 128)
2(129 130)
2(131 132)
2(133 134)
2(135 136)
2(137 138)
2(139 140)
2(141 142)
2(143 144)
2(145 146)
2(147 148)
2(149 150)
2(151 152)
2(153 154)
2(155 156)
2(157 158)
2(159 160)
2(161 162)
2(163 164)
2(165 166)
2(167 168)
2(169 170)
2(171 172)
2(173 174)
2(175 176)
2(177 178)
2(179 180)
2(181 182)
2(183 184)
2(185 186)
2(187 188)
2(189 190)
2(191 192)
2(193 194)
2(195 196)
2(197 198)
2(199 200)
2(201 202)
2(203 204)
2(205 206)
2(207 208)
2(209 210)
2(211 212)
2(213 214)
2(215 216)
2(217 218)
2(219 220)
2(221 222)
2(223 224)
2(225 226)
2(227 228)
2(229 230)
2(231 232)
2(233 234)
2(235 236)
2(237 238)
2(239 240)
2(241 242)
2(243 244)
2(245 246)
2(245 247)
2(248 249)
2(248 250)
2(251 252)
2(253 254)
2(255 256)
2(257 258)
2(259 260)
2(261 262)
2(263 264)
2(265 266)
2(267 268)
2(269 270)
2(271 272)
2(273 274)
2(275 276)
2(277 278)
2(279 280)
2(281 282)
2(283 284)
2(285 286)
2(287 288)
2(289 290)
2(291 292)
2(293 294)
2(295 296)
2(297 298)
2(299 300)
2(301 302)
2(303 304)
2(305 306)
2(307 308)
2(309 310)
2(311 312)
2(313 314)
2(315 316)
2(317 318)
2(319 320)
2(321 322)
2(323 324)
2(325 326)
2(327 328)
2(329 330)
2(331 332)
2(333 334)
2(335 336)
2(337 338)
2(339 340)
2(341 342)
2(343 344)
2(345 346)
2(347 348)
2(349 350)
2(351 352)
2(353 354)
2(355 356)
2(357 358)
2(359 360)
2(361 362)
2(363 364)
2(365 366)
2(367 368)
2(369 370)
2(371 372)
2(373 374)
2(375 376)
2(377 378)
2(379 380)
2(381 382)
2(383 384)
2(385 386)
2(387 388)
2(389 390)
2(391 392)
2(393 394)
2(395 396)
2(397 398)
2(399 400)
2(401 402)
2(403 404)
2(405 406)
2(407 408)
2(409 410)
2(411 412)
2(413 414)
2(415 416)
2(417 418)
2(419 420)
2(421 422)
2(423 424)
2(425 426)
2(427 428)
2(429 430)
2(431 432)
2(433 434)
2(435 436)
2(437 438)
2(439 440)
2(441 442)
2(443 444)
2(445 446)
2(447 448)
2(449 450)
2(451 452)
2(453 454)
2(455 456)
2(457 458)
2(459 460)
2(461 462)
2(463 464)
2(465 466)
2(467 468)
2(469 470)
2(469 471)
2(472 473)
2(474 475)
2(476 477)
2(478 479)
2(480 481)
2(482 483)
2(484 485)
2(486 487)
2(488 489)
2(490 491)
2(492 493)
2(494 495)
2(6 252)
2(249 2)
2(1 250)
2(4 336)
)

// featurePointNormals

8
(
3(0 1 2)
3(0 1 4)
3(0 2 6)
3(248 249 250)
3(248 249 252)
3(251 252 266)
3(3 4 50)
3(248 250 336)
)

// featurePointEdges

8
(
3(0 251 1)
3(2 252 0)
3(3 250 1)
3(125 252 126)
3(127 251 125)
3(134 250 127)
3(25 253 2)
3(169 253 126)
)

// regionEdges
0()


// ************************************************************************* //
