/*--------------------------------*- C++ -*----------------------------------*\
| =========                 |                                                 |
| \\      /  F ield         | OpenFOAM: The Open Source CFD Toolbox           |
|  \\    /   O peration     | Version:  v2406                                 |
|   \\  /    A nd           | Website:  www.openfoam.com                      |
|    \\/     M anipulation  |                                                 |
\*---------------------------------------------------------------------------*/
FoamFile
{
    version     2.0;
    format      ascii;
    class       volVectorField;
    object      U;
}
// * * * * * * * * * * * * * * * * * * * * * * * * * * * * * * * * * * * * * //

#include        "include/initialConditions"

dimensions      [0 1 -1 0 0 0 0];

internalField   uniform $flowVelocity;

boundaryField
{
    #includeEtc "caseDicts/setConstraintTypes"

	inlet
	{
		type  codedFixedValue;
		value $internalField;
		name UProfile;
		
		code
		#{
		const scalar Ut = 6.37;
		const scalar hb = 7.77239990234375;
		const scalar z0 = 0.017;
		const scalar ht = 8.91389990234375; //input values

		const vectorField& Cf = patch().Cf();
		vectorField& field = *this;   
		
		forAll(Cf, faceI)
		{
			scalar y = Cf[faceI].y() ;
			scalar Ux = (Ut / log( (ht+z0) / z0)) * log((y + hb + z0) / z0);
			field[faceI] = vector( Ux, 0.0 , 0.0 );	 
		} 
		#};
			 
		codeOptions
		#{ 
		-I$(FOAM_SRC)/finiteVolume/lnInclude \
		-I$(FOAM_SRC)/meshTools/lnInclude
		#};

		codeLibs
  		  #{
   		     -lOpenFOAM \
   		     -lfiniteVolume
  		  #};

		codeInclude
		#{
		#include "fvCFD.H"
		#include <cmath>
		#include <iostream>
		#};
	}

    	outlet
    {
        type            inletOutlet;
        inletValue      uniform (0 0 0);
        value           $internalField;
    }

    	container
    {
        type           noSlip;
    }
	
	spoiler
    {
        type            noSlip;
    }
	
	ground
    {
        type            noSlip;
    }
	

    #include "include/frontBackUpperPatches"
}


// ************************************************************************* //
