/*--------------------------------*- C++ -*----------------------------------*\
| =========                 |                                                 |
| \\      /  F ield         | OpenFOAM: The Open Source CFD Toolbox           |
|  \\    /   O peration     | Version:  v2406                                 |
|   \\  /    A nd           | Website:  www.openfoam.com                      |
|    \\/     M anipulation  |                                                 |
\*---------------------------------------------------------------------------*/
FoamFile
{
    version     2.0;
    format      ascii;
    class       dictionary;
    object      fvSolution;
}
// * * * * * * * * * * * * * * * * * * * * * * * * * * * * * * * * * * * * * //

solvers
{
    pcorr
    {
        solver          GAMG;
        tolerance       1e-4;
        relTol          0;
        smoother        DICGaussSeidel;
        cacheAgglomeration no;
        nCellsInCoarsestLevel 10;
        agglomerator    faceAreaPair;
        mergeLevels     1;
        maxIter         50;
    }

    p
    {
        $pcorr;
        tolerance       1e-6;
        relTol          0.01;
    }

    pFinal
    {
        $p;
        tolerance       1e-6;
        relTol          0;
    }

   U
    {
        solver      smoothSolver;
    	smoother    symGaussSeidel;
        tolerance   1e-6;
        relTol      0.1;
    }

    UFinal
    {
        $U;
        tolerance   1e-6;
        relTol      0;
    }

    k
    {
        solver      smoothSolver;
        smoother    symGaussSeidel;
        tolerance   1e-6;
        relTol      0.1;
    }

    kFinal
    {
        $k;
        tolerance   1e-6;
        relTol      0;
    }

    omega
    {
        solver      smoothSolver;
        smoother    symGaussSeidel;
        tolerance   1e-6;
        relTol      0.1;
    }

    omegaFinal
    {
        $k;
        tolerance   1e-6;
        relTol      0;
    }

    nut
    {
        solver      smoothSolver;
        smoother    symGaussSeidel;
        tolerance   1e-6;
        relTol      0.1;
    }

    nutFinal
    {
        $nut;
        tolerance   1e-6;
        relTol      0;
    }
}

SIMPLE
{
    nNonOrthogonalCorrectors 0;
    consistent yes;
	
	residualControl
	{
		U	1e-6;
		p	1e-6;
		k	1e-6;
		omega	1e-6;
		nut	1e-6;
	}
    pRefCell 0;
    pRefValue 0;
}
/*
potentialFlow
{
    nNonOrthogonalCorrectors 10;
    PhiRefCell 0;
    PhiRefValue 0;
}
*/
relaxationFactors
{
    fields
    {
        p               0.5;
        U               0.7;
    }
    equations
    {
        U               0.7;
        k               0.7;
        omega           0.5;
    }
}

cache
{
    grad(U);
}


// ************************************************************************* //
